

        *** GPGPU-Sim Simulator Version 3.2.2  [build gpgpu-sim_git-commit-ddd8790408a74e19f7f394289980b70d79dab717_modified_0] ***


GPGPU-Sim PTX: simulation mode 0 (can change with PTX_SIM_MODE_FUNC environment variable:
               1=functional simulation only, 0=detailed performance simulator)
GPGPU-Sim: Configuration options:

-network_mode                           1 # Interconnection network mode
-inter_config_file   config_fermi_islip.icnt # Interconnection network config file
-gpgpu_ptx_use_cuobjdump                    1 # Use cuobjdump to extract ptx and sass from binaries
-gpgpu_experimental_lib_support                    0 # Try to extract code from cuda libraries [Broken because of unknown cudaGetExportTable]
-gpgpu_ptx_convert_to_ptxplus                    0 # Convert SASS (native ISA) to ptxplus and run ptxplus
-gpgpu_ptx_force_max_capability                   20 # Force maximum compute capability
-gpgpu_ptx_inst_debug_to_file                    0 # Dump executed instructions' debug information to file
-gpgpu_ptx_inst_debug_file       inst_debug.txt # Executed instructions' debug output file
-gpgpu_ptx_inst_debug_thread_uid                    1 # Thread UID for executed instructions' debug output
-gpgpu_simd_model                       1 # 1 = post-dominator
-gpgpu_shader_core_pipeline              1536:32 # shader core pipeline config, i.e., {<nthread>:<warpsize>}
-gpgpu_tex_cache:l1  4:128:24,L:R:m:N:L,F:128:4,128:2 # per-shader L1 texture cache  (READ-ONLY) config  {<nsets>:<bsize>:<assoc>,<rep>:<wr>:<alloc>:<wr_alloc>,<mshr>:<N>:<merge>,<mq>:<rf>}
-gpgpu_const_cache:l1 64:64:2,L:R:f:N:L,A:2:32,4 # per-shader L1 constant memory cache  (READ-ONLY) config  {<nsets>:<bsize>:<assoc>,<rep>:<wr>:<alloc>:<wr_alloc>,<mshr>:<N>:<merge>,<mq>} 
-gpgpu_cache:il1     4:128:4,L:R:f:N:L,A:2:32,4 # shader L1 instruction cache config  {<nsets>:<bsize>:<assoc>,<rep>:<wr>:<alloc>:<wr_alloc>,<mshr>:<N>:<merge>,<mq>} 
-gpgpu_cache:dl1     32:128:4,L:L:m:N:H,A:32:8,8 # per-shader L1 data cache config  {<nsets>:<bsize>:<assoc>,<rep>:<wr>:<alloc>:<wr_alloc>,<mshr>:<N>:<merge>,<mq> | none}
-gpgpu_cache:dl1PrefL1                 none # per-shader L1 data cache config  {<nsets>:<bsize>:<assoc>,<rep>:<wr>:<alloc>:<wr_alloc>,<mshr>:<N>:<merge>,<mq> | none}
-gpgpu_cache:dl1PreShared                 none # per-shader L1 data cache config  {<nsets>:<bsize>:<assoc>,<rep>:<wr>:<alloc>:<wr_alloc>,<mshr>:<N>:<merge>,<mq> | none}
-gmem_skip_L1D                          0 # global memory access skip L1D cache (implements -Xptxas -dlcm=cg, default=no skip)
-gpgpu_perfect_mem                      0 # enable perfect memory mode (no cache miss)
-n_regfile_gating_group                    4 # group of lanes that should be read/written together)
-gpgpu_clock_gated_reg_file                    0 # enable clock gated reg file for power calculations
-gpgpu_clock_gated_lanes                    0 # enable clock gated lanes for power calculations
-gpgpu_shader_registers                32768 # Number of registers per shader core. Limits number of concurrent CTAs. (default 8192)
-gpgpu_shader_cta                       8 # Maximum number of concurrent CTAs in shader (default 8)
-gpgpu_num_cta_barriers                   16 # Maximum number of named barriers per CTA (default 16)
-gpgpu_n_clusters                      15 # number of processing clusters
-gpgpu_n_cores_per_cluster                    1 # number of simd cores per cluster
-gpgpu_n_cluster_ejection_buffer_size                    8 # number of packets in ejection buffer
-gpgpu_n_ldst_response_buffer_size                    2 # number of response packets in ld/st unit ejection buffer
-gpgpu_shmem_size                   16384 # Size of shared memory per shader core (default 16kB)
-gpgpu_shmem_size                   49152 # Size of shared memory per shader core (default 16kB)
-gpgpu_shmem_size_PrefL1                16384 # Size of shared memory per shader core (default 16kB)
-gpgpu_shmem_size_PrefShared                16384 # Size of shared memory per shader core (default 16kB)
-gpgpu_shmem_num_banks                   32 # Number of banks in the shared memory in each shader core (default 16)
-gpgpu_shmem_limited_broadcast                    0 # Limit shared memory to do one broadcast per cycle (default on)
-gpgpu_shmem_warp_parts                    1 # Number of portions a warp is divided into for shared memory bank conflict check 
-gpgpu_warpdistro_shader                   -1 # Specify which shader core to collect the warp size distribution from
-gpgpu_warp_issue_shader                    0 # Specify which shader core to collect the warp issue distribution from
-gpgpu_local_mem_map                    1 # Mapping from local memory space address to simulated GPU physical address space (default = enabled)
-gpgpu_num_reg_banks                   16 # Number of register banks (default = 8)
-gpgpu_reg_bank_use_warp_id                    0 # Use warp ID in mapping registers to banks (default = off)
-gpgpu_operand_collector_num_units_sp                    6 # number of collector units (default = 4)
-gpgpu_operand_collector_num_units_sfu                    8 # number of collector units (default = 4)
-gpgpu_operand_collector_num_units_mem                    2 # number of collector units (default = 2)
-gpgpu_operand_collector_num_units_gen                    0 # number of collector units (default = 0)
-gpgpu_operand_collector_num_in_ports_sp                    2 # number of collector unit in ports (default = 1)
-gpgpu_operand_collector_num_in_ports_sfu                    1 # number of collector unit in ports (default = 1)
-gpgpu_operand_collector_num_in_ports_mem                    1 # number of collector unit in ports (default = 1)
-gpgpu_operand_collector_num_in_ports_gen                    0 # number of collector unit in ports (default = 0)
-gpgpu_operand_collector_num_out_ports_sp                    2 # number of collector unit in ports (default = 1)
-gpgpu_operand_collector_num_out_ports_sfu                    1 # number of collector unit in ports (default = 1)
-gpgpu_operand_collector_num_out_ports_mem                    1 # number of collector unit in ports (default = 1)
-gpgpu_operand_collector_num_out_ports_gen                    0 # number of collector unit in ports (default = 0)
-gpgpu_coalesce_arch                   13 # Coalescing arch (default = 13, anything else is off for now)
-gpgpu_num_sched_per_core                    2 # Number of warp schedulers per core
-gpgpu_max_insn_issue_per_warp                    1 # Max number of instructions that can be issued per warp in one cycle by scheduler
-gpgpu_simt_core_sim_order                    1 # Select the simulation order of cores in a cluster (0=Fix, 1=Round-Robin)
-gpgpu_pipeline_widths        2,1,1,2,1,1,2 # Pipeline widths ID_OC_SP,ID_OC_SFU,ID_OC_MEM,OC_EX_SP,OC_EX_SFU,OC_EX_MEM,EX_WB
-gpgpu_num_sp_units                     2 # Number of SP units (default=1)
-gpgpu_num_sfu_units                    1 # Number of SF units (default=1)
-gpgpu_num_mem_units                    1 # Number if ldst units (default=1) WARNING: not hooked up to anything
-gpgpu_scheduler                      gto # Scheduler configuration: < lrr | gto | two_level_active > If two_level_active:<num_active_warps>:<inner_prioritization>:<outer_prioritization>For complete list of prioritization values see shader.h enum scheduler_prioritization_typeDefault: gto
-gpgpu_concurrent_kernel_sm                    0 # Support concurrent kernels on a SM (default = disabled)
-gpgpu_rfc_slots                        8 # Shader Register File Cache per-warp register capacity (default=6)
-gpgpu_dram_scheduler                    1 # 0 = fifo, 1 = FR-FCFS (defaul)
-gpgpu_dram_partition_queues              8:8:8:8 # i2$:$2d:d2$:$2i
-l2_ideal                               0 # Use a ideal L2 cache that always hit
-gpgpu_cache:dl2     64:128:8,L:B:m:W:L,A:32:4,4:0,32 # unified banked L2 data cache config  {<nsets>:<bsize>:<assoc>,<rep>:<wr>:<alloc>:<wr_alloc>,<mshr>:<N>:<merge>,<mq>}
-gpgpu_cache:dl2_texture_only                    0 # L2 cache used for texture only
-gpgpu_n_mem                            6 # number of memory modules (e.g. memory controllers) in gpu
-gpgpu_n_sub_partition_per_mchannel                    2 # number of memory subpartition in each memory module
-gpgpu_n_mem_per_ctrlr                    2 # number of memory chips per memory controller
-gpgpu_memlatency_stat                   14 # track and display latency statistics 0x2 enables MC, 0x4 enables queue logs
-gpgpu_frfcfs_dram_sched_queue_size                   16 # 0 = unlimited (default); # entries per chip
-gpgpu_dram_return_queue_size                  116 # 0 = unlimited (default); # entries per chip
-gpgpu_dram_buswidth                    4 # default = 4 bytes (8 bytes per cycle at DDR)
-gpgpu_dram_burst_length                    8 # Burst length of each DRAM request (default = 4 data bus cycle)
-dram_data_command_freq_ratio                    4 # Frequency ratio between DRAM data bus and command bus (default = 2 times, i.e. DDR)
-gpgpu_dram_timing_opt nbk=16:CCD=2:RRD=6:RCD=12:RAS=28:RP=12:RC=40: CL=12:WL=4:CDLR=5:WR=12:nbkgrp=4:CCDL=3:RTPL=2 # DRAM timing parameters = {nbk:tCCD:tRRD:tRCD:tRAS:tRP:tRC:CL:WL:tCDLR:tWR:nbkgrp:tCCDL:tRTPL}
-rop_latency                          120 # ROP queue latency (default 85)
-dram_latency                         100 # DRAM latency (default 30)
-gpgpu_mem_addr_mapping dramid@8;00000000.00000000.00000000.00000000.0000RRRR.RRRRRRRR.BBBCCCCB.CCSSSSSS # mapping memory address to dram model {dramid@<start bit>;<memory address map>}
-gpgpu_mem_addr_test                    0 # run sweep test to check address mapping for aliased address
-gpgpu_mem_address_mask                    1 # 0 = old addressing mask, 1 = new addressing mask, 2 = new add. mask + flipped bank sel and chip sel bits
-gpuwattch_xml_file  gpuwattch_gtx480.xml # GPUWattch XML file
-power_simulation_enabled                    1 # Turn on power simulator (1=On, 0=Off)
-power_per_cycle_dump                    0 # Dump detailed power output each cycle
-power_trace_enabled                    0 # produce a file for the power trace (1=On, 0=Off)
-power_trace_zlevel                     6 # Compression level of the power trace output log (0=no comp, 9=highest)
-steady_power_levels_enabled                    0 # produce a file for the steady power levels (1=On, 0=Off)
-steady_state_definition                  8:4 # allowed deviation:number of samples
-gpgpu_max_cycle                        0 # terminates gpu simulation early (0 = no limit)
-gpgpu_max_insn                         0 # terminates gpu simulation early (0 = no limit)
-gpgpu_max_cta                          0 # terminates gpu simulation early (0 = no limit)
-gpgpu_runtime_stat                   500 # display runtime statistics such as dram utilization {<freq>:<flag>}
-liveness_message_freq                    1 # Minimum number of seconds between simulation liveness messages (0 = always print)
-gpgpu_flush_l1_cache                    0 # Flush L1 cache at the end of each kernel call
-gpgpu_flush_l2_cache                    0 # Flush L2 cache at the end of each kernel call
-gpgpu_deadlock_detect                    1 # Stop the simulation at deadlock (1=on (default), 0=off)
-gpgpu_ptx_instruction_classification                    0 # if enabled will classify ptx instruction types per kernel (Max 255 kernels now)
-gpgpu_ptx_sim_mode                     0 # Select between Performance (default) or Functional simulation (1)
-gpgpu_clock_domains 700.0:700.0:700.0:924.0 # Clock Domain Frequencies in MhZ {<Core Clock>:<ICNT Clock>:<L2 Clock>:<DRAM Clock>}
-gpgpu_max_concurrent_kernel                    8 # maximum kernels that can run concurrently on GPU
-gpgpu_cflog_interval                    0 # Interval between each snapshot in control flow logger
-visualizer_enabled                     0 # Turn on visualizer output (1=On, 0=Off)
-visualizer_outputfile                 NULL # Specifies the output log file for visualizer
-visualizer_zlevel                      6 # Compression level of the visualizer output log (0=no comp, 9=highest)
-trace_enabled                          0 # Turn on traces
-trace_components                    none # comma seperated list of traces to enable. Complete list found in trace_streams.tup. Default none
-trace_sampling_core                    0 # The core which is printed using CORE_DPRINTF. Default 0
-trace_sampling_memory_partition                   -1 # The memory partition which is printed using MEMPART_DPRINTF. Default -1 (i.e. all)
-enable_ptx_file_line_stats                    1 # Turn on PTX source line statistic profiling. (1 = On)
-ptx_line_stats_filename gpgpu_inst_stats.txt # Output file for PTX source line statistics.
-gpgpu_kernel_launch_latency                    0 # Kernel launch latency in cycles. Default: 0
-gpgpu_cdp_enabled                      0 # Turn on CDP
-save_embedded_ptx                      0 # saves ptx files embedded in binary as <n>.ptx
-keep                                   0 # keep intermediate files created by GPGPU-Sim when interfacing with external programs
-gpgpu_ptx_save_converted_ptxplus                    0 # Saved converted ptxplus to a file
-ptx_opcode_latency_int         4,13,4,5,145 # Opcode latencies for integers <ADD,MAX,MUL,MAD,DIV>Default 1,1,19,25,145
-ptx_opcode_latency_fp          4,13,4,5,39 # Opcode latencies for single precision floating points <ADD,MAX,MUL,MAD,DIV>Default 1,1,1,1,30
-ptx_opcode_latency_dp         8,19,8,8,330 # Opcode latencies for double precision floating points <ADD,MAX,MUL,MAD,DIV>Default 8,8,8,8,335
-ptx_opcode_initiation_int            1,2,2,1,8 # Opcode initiation intervals for integers <ADD,MAX,MUL,MAD,DIV>Default 1,1,4,4,32
-ptx_opcode_initiation_fp            1,2,1,1,4 # Opcode initiation intervals for single precision floating points <ADD,MAX,MUL,MAD,DIV>Default 1,1,1,1,5
-ptx_opcode_initiation_dp         8,16,8,8,130 # Opcode initiation intervals for double precision floating points <ADD,MAX,MUL,MAD,DIV>Default 8,8,8,8,130
-cdp_latency         7200,8000,100,12000,1600 # CDP API latency <cudaStreamCreateWithFlags, cudaGetParameterBufferV2_init_perWarp, cudaGetParameterBufferV2_perKernel, cudaLaunchDeviceV2_init_perWarp, cudaLaunchDevicV2_perKernel>Default 7200,8000,100,12000,1600
DRAM Timing Options:
nbk                                    16 # number of banks
CCD                                     2 # column to column delay
RRD                                     6 # minimal delay between activation of rows in different banks
RCD                                    12 # row to column delay
RAS                                    28 # time needed to activate row
RP                                     12 # time needed to precharge (deactivate) row
RC                                     40 # row cycle time
CDLR                                    5 # switching from write to read (changes tWTR)
WR                                     12 # last data-in to row precharge
CL                                     12 # CAS latency
WL                                      4 # Write latency
nbkgrp                                  4 # number of bank groups
CCDL                                    3 # column to column delay between accesses to different bank groups
RTPL                                    2 # read to precharge delay between accesses to different bank groups
Total number of memory sub partition = 12
addr_dec_mask[CHIP]  = 0000000000000000 	high:64 low:0
addr_dec_mask[BK]    = 000000000000e100 	high:16 low:8
addr_dec_mask[ROW]   = 000000000fff0000 	high:28 low:16
addr_dec_mask[COL]   = 0000000000001eff 	high:13 low:0
addr_dec_mask[BURST] = 000000000000003f 	high:6 low:0
sub_partition_id_mask = 0000000000000100
GPGPU-Sim uArch: clock freqs: 700000000.000000:700000000.000000:700000000.000000:924000000.000000
GPGPU-Sim uArch: clock periods: 0.00000000142857142857:0.00000000142857142857:0.00000000142857142857:0.00000000108225108225
*** Initializing Memory Statistics ***
GPGPU-Sim uArch: interconnect node map (shaderID+MemID to icntID)
GPGPU-Sim uArch: Memory nodes ID start from index: 15
GPGPU-Sim uArch:    0   1   2   3   4
GPGPU-Sim uArch:    5   6   7   8   9
GPGPU-Sim uArch:   10  11  12  13  14
GPGPU-Sim uArch:   15  16  17  18  19
GPGPU-Sim uArch:   20  21  22  23  24
GPGPU-Sim uArch:   25  26
GPGPU-Sim uArch: interconnect node reverse map (icntID to shaderID+MemID)
GPGPU-Sim uArch: Memory nodes start from ID: 15
GPGPU-Sim uArch:    0   1   2   3   4
GPGPU-Sim uArch:    5   6   7   8   9
GPGPU-Sim uArch:   10  11  12  13  14
GPGPU-Sim uArch:   15  16  17  18  19
GPGPU-Sim uArch:   20  21  22  23  24
GPGPU-Sim uArch:   25  26
2e2a2126a76712faffefaccb9120491a  /home/min/a/tpritche/Courses/ECE_695_GPU/Assignments/HW2/GPGPU-Sim/benchmarks/wp/WP
GPGPU-Sim uArch: performance model initialization complete.
GPGPU-Sim PTX: __cudaRegisterFatBinary, fat_cubin_handle = 1, filename=wsm5_gpu.f.cu
self exe links to: /home/min/a/tpritche/Courses/ECE_695_GPU/Assignments/HW2/GPGPU-Sim/benchmarks/wp/WP
Running md5sum using "md5sum /home/min/a/tpritche/Courses/ECE_695_GPU/Assignments/HW2/GPGPU-Sim/benchmarks/wp/WP "
Parsing file _cuobjdump_complete_output_PmRgb1
######### cuobjdump parser ########
## Adding new section ELF
Adding arch: sm_10
Adding identifier: wsm5.f.cu
## Adding new section PTX
Adding ptx filename: _cuobjdump_1.ptx
Adding arch: sm_10
Adding identifier: wsm5.f.cu
## Adding new section PTX
Adding ptx filename: _cuobjdump_2.ptx
Adding arch: sm_20
Adding identifier: wsm5.f.cu
## Adding new section ELF
Adding arch: sm_20
Adding identifier: wsm5.f.cu
## Adding new section ELF
Adding arch: sm_10
Adding identifier: wsm5_gpu.f.cu
## Adding new section PTX
Adding ptx filename: _cuobjdump_3.ptx
Adding arch: sm_10
Adding identifier: wsm5_gpu.f.cu
## Adding new section PTX
Adding ptx filename: _cuobjdump_4.ptx
Adding arch: sm_20
Adding identifier: wsm5_gpu.f.cu
## Adding new section ELF
Adding arch: sm_20
Adding identifier: wsm5_gpu.f.cu
Done parsing!!!
GPGPU-Sim PTX: __cudaRegisterFunction _Z8wsm5_gpuPfS_S_S_S_S_S_S_S_S_S_S_S_S_S_fS_iiiiiiiiiiiiiiiiii : hostFun 0x0x41b110, fat_cubin_handle = 1
GPGPU-Sim PTX: allocating stack frame region for .param "func_retval0" from 0x0 to 0x10
GPGPU-Sim PTX: allocating stack frame region for .param "_Zplf6Float4_param_0" from 0x10 to 0x14
GPGPU-Sim PTX: allocating stack frame region for .param "_Zplf6Float4_param_1" from 0x14 to 0x24
GPGPU-Sim PTX: instruction assembly for function '_Zplf6Float4'...   done.
GPGPU-Sim PTX: finding reconvergence points for '_Zplf6Float4'...
GPGPU-Sim PTX: Finding dominators for '_Zplf6Float4'...
GPGPU-Sim PTX: Finding immediate dominators for '_Zplf6Float4'...
GPGPU-Sim PTX: Finding postdominators for '_Zplf6Float4'...
GPGPU-Sim PTX: Finding immediate postdominators for '_Zplf6Float4'...
GPGPU-Sim PTX: pre-decoding instructions for '_Zplf6Float4'...
GPGPU-Sim PTX: reconvergence points for _Zplf6Float4...
GPGPU-Sim PTX: ... end of reconvergence points for _Zplf6Float4
GPGPU-Sim PTX: ... done pre-decoding instructions for '_Zplf6Float4'.
GPGPU-Sim PTX: allocating stack frame region for .param "func_retval0" from 0x0 to 0x10
GPGPU-Sim PTX: allocating stack frame region for .param "_Zmlf6Float4_param_0" from 0x10 to 0x14
GPGPU-Sim PTX: allocating stack frame region for .param "_Zmlf6Float4_param_1" from 0x14 to 0x24
GPGPU-Sim PTX: instruction assembly for function '_Zmlf6Float4'...   done.
GPGPU-Sim PTX: finding reconvergence points for '_Zmlf6Float4'...
GPGPU-Sim PTX: Finding dominators for '_Zmlf6Float4'...
GPGPU-Sim PTX: Finding immediate dominators for '_Zmlf6Float4'...
GPGPU-Sim PTX: Finding postdominators for '_Zmlf6Float4'...
GPGPU-Sim PTX: Finding immediate postdominators for '_Zmlf6Float4'...
GPGPU-Sim PTX: pre-decoding instructions for '_Zmlf6Float4'...
GPGPU-Sim PTX: reconvergence points for _Zmlf6Float4...
GPGPU-Sim PTX: ... end of reconvergence points for _Zmlf6Float4
GPGPU-Sim PTX: ... done pre-decoding instructions for '_Zmlf6Float4'.
GPGPU-Sim PTX: allocating stack frame region for .param "func_retval0" from 0x0 to 0x10
GPGPU-Sim PTX: allocating stack frame region for .param "_Zdvf6Float4_param_0" from 0x10 to 0x14
GPGPU-Sim PTX: allocating stack frame region for .param "_Zdvf6Float4_param_1" from 0x14 to 0x24
GPGPU-Sim PTX: instruction assembly for function '_Zdvf6Float4'...   done.
GPGPU-Sim PTX: finding reconvergence points for '_Zdvf6Float4'...
GPGPU-Sim PTX: Finding dominators for '_Zdvf6Float4'...
GPGPU-Sim PTX: Finding immediate dominators for '_Zdvf6Float4'...
GPGPU-Sim PTX: Finding postdominators for '_Zdvf6Float4'...
GPGPU-Sim PTX: Finding immediate postdominators for '_Zdvf6Float4'...
GPGPU-Sim PTX: pre-decoding instructions for '_Zdvf6Float4'...
GPGPU-Sim PTX: reconvergence points for _Zdvf6Float4...
GPGPU-Sim PTX: ... end of reconvergence points for _Zdvf6Float4
GPGPU-Sim PTX: ... done pre-decoding instructions for '_Zdvf6Float4'.
GPGPU-Sim PTX: allocating stack frame region for .param "func_retval0" from 0x0 to 0x10
GPGPU-Sim PTX: allocating stack frame region for .param "_Zmif6Float4_param_0" from 0x10 to 0x14
GPGPU-Sim PTX: allocating stack frame region for .param "_Zmif6Float4_param_1" from 0x14 to 0x24
GPGPU-Sim PTX: instruction assembly for function '_Zmif6Float4'...   done.
GPGPU-Sim PTX: finding reconvergence points for '_Zmif6Float4'...
GPGPU-Sim PTX: Finding dominators for '_Zmif6Float4'...
GPGPU-Sim PTX: Finding immediate dominators for '_Zmif6Float4'...
GPGPU-Sim PTX: Finding postdominators for '_Zmif6Float4'...
GPGPU-Sim PTX: Finding immediate postdominators for '_Zmif6Float4'...
GPGPU-Sim PTX: pre-decoding instructions for '_Zmif6Float4'...
GPGPU-Sim PTX: reconvergence points for _Zmif6Float4...
GPGPU-Sim PTX: ... end of reconvergence points for _Zmif6Float4
GPGPU-Sim PTX: ... done pre-decoding instructions for '_Zmif6Float4'.
GPGPU-Sim PTX: allocating stack frame region for .param "func_retval0" from 0x0 to 0x10
GPGPU-Sim PTX: allocating stack frame region for .param "_Z3max6Float4S__param_0" from 0x10 to 0x20
GPGPU-Sim PTX: allocating stack frame region for .param "_Z3max6Float4S__param_1" from 0x20 to 0x30
GPGPU-Sim PTX: instruction assembly for function '_Z3max6Float4S_'...   done.
GPGPU-Sim PTX: finding reconvergence points for '_Z3max6Float4S_'...
GPGPU-Sim PTX: Finding dominators for '_Z3max6Float4S_'...
GPGPU-Sim PTX: Finding immediate dominators for '_Z3max6Float4S_'...
GPGPU-Sim PTX: Finding postdominators for '_Z3max6Float4S_'...
GPGPU-Sim PTX: Finding immediate postdominators for '_Z3max6Float4S_'...
GPGPU-Sim PTX: pre-decoding instructions for '_Z3max6Float4S_'...
GPGPU-Sim PTX: reconvergence points for _Z3max6Float4S_...
GPGPU-Sim PTX: ... end of reconvergence points for _Z3max6Float4S_
GPGPU-Sim PTX: ... done pre-decoding instructions for '_Z3max6Float4S_'.
GPGPU-Sim PTX: allocating stack frame region for .param "func_retval0" from 0x0 to 0x10
GPGPU-Sim PTX: allocating stack frame region for .param "_Z3maxf6Float4_param_0" from 0x10 to 0x14
GPGPU-Sim PTX: allocating stack frame region for .param "_Z3maxf6Float4_param_1" from 0x14 to 0x24
GPGPU-Sim PTX: instruction assembly for function '_Z3maxf6Float4'...   done.
GPGPU-Sim PTX: finding reconvergence points for '_Z3maxf6Float4'...
GPGPU-Sim PTX: Finding dominators for '_Z3maxf6Float4'...
GPGPU-Sim PTX: Finding immediate dominators for '_Z3maxf6Float4'...
GPGPU-Sim PTX: Finding postdominators for '_Z3maxf6Float4'...
GPGPU-Sim PTX: Finding immediate postdominators for '_Z3maxf6Float4'...
GPGPU-Sim PTX: pre-decoding instructions for '_Z3maxf6Float4'...
GPGPU-Sim PTX: reconvergence points for _Z3maxf6Float4...
GPGPU-Sim PTX: ... end of reconvergence points for _Z3maxf6Float4
GPGPU-Sim PTX: ... done pre-decoding instructions for '_Z3maxf6Float4'.
GPGPU-Sim PTX: allocating stack frame region for .param "func_retval0" from 0x0 to 0x10
GPGPU-Sim PTX: allocating stack frame region for .param "_Z3max6Float4f_param_0" from 0x10 to 0x20
GPGPU-Sim PTX: allocating stack frame region for .param "_Z3max6Float4f_param_1" from 0x20 to 0x24
GPGPU-Sim PTX: instruction assembly for function '_Z3max6Float4f'...   done.
GPGPU-Sim PTX: finding reconvergence points for '_Z3max6Float4f'...
GPGPU-Sim PTX: Finding dominators for '_Z3max6Float4f'...
GPGPU-Sim PTX: Finding immediate dominators for '_Z3max6Float4f'...
GPGPU-Sim PTX: Finding postdominators for '_Z3max6Float4f'...
GPGPU-Sim PTX: Finding immediate postdominators for '_Z3max6Float4f'...
GPGPU-Sim PTX: pre-decoding instructions for '_Z3max6Float4f'...
GPGPU-Sim PTX: reconvergence points for _Z3max6Float4f...
GPGPU-Sim PTX: ... end of reconvergence points for _Z3max6Float4f
GPGPU-Sim PTX: ... done pre-decoding instructions for '_Z3max6Float4f'.
GPGPU-Sim PTX: allocating stack frame region for .param "func_retval0" from 0x0 to 0x10
GPGPU-Sim PTX: allocating stack frame region for .param "_Z3min6Float4S__param_0" from 0x10 to 0x20
GPGPU-Sim PTX: allocating stack frame region for .param "_Z3min6Float4S__param_1" from 0x20 to 0x30
GPGPU-Sim PTX: instruction assembly for function '_Z3min6Float4S_'...   done.
GPGPU-Sim PTX: finding reconvergence points for '_Z3min6Float4S_'...
GPGPU-Sim PTX: Finding dominators for '_Z3min6Float4S_'...
GPGPU-Sim PTX: Finding immediate dominators for '_Z3min6Float4S_'...
GPGPU-Sim PTX: Finding postdominators for '_Z3min6Float4S_'...
GPGPU-Sim PTX: Finding immediate postdominators for '_Z3min6Float4S_'...
GPGPU-Sim PTX: pre-decoding instructions for '_Z3min6Float4S_'...
GPGPU-Sim PTX: reconvergence points for _Z3min6Float4S_...
GPGPU-Sim PTX: ... end of reconvergence points for _Z3min6Float4S_
GPGPU-Sim PTX: ... done pre-decoding instructions for '_Z3min6Float4S_'.
GPGPU-Sim PTX: allocating stack frame region for .param "func_retval0" from 0x0 to 0x10
GPGPU-Sim PTX: allocating stack frame region for .param "_Z3minf6Float4_param_0" from 0x10 to 0x14
GPGPU-Sim PTX: allocating stack frame region for .param "_Z3minf6Float4_param_1" from 0x14 to 0x24
GPGPU-Sim PTX: instruction assembly for function '_Z3minf6Float4'...   done.
GPGPU-Sim PTX: finding reconvergence points for '_Z3minf6Float4'...
GPGPU-Sim PTX: Finding dominators for '_Z3minf6Float4'...
GPGPU-Sim PTX: Finding immediate dominators for '_Z3minf6Float4'...
GPGPU-Sim PTX: Finding postdominators for '_Z3minf6Float4'...
GPGPU-Sim PTX: Finding immediate postdominators for '_Z3minf6Float4'...
GPGPU-Sim PTX: pre-decoding instructions for '_Z3minf6Float4'...
GPGPU-Sim PTX: reconvergence points for _Z3minf6Float4...
GPGPU-Sim PTX: ... end of reconvergence points for _Z3minf6Float4
GPGPU-Sim PTX: ... done pre-decoding instructions for '_Z3minf6Float4'.
GPGPU-Sim PTX: allocating stack frame region for .param "func_retval0" from 0x0 to 0x10
GPGPU-Sim PTX: allocating stack frame region for .param "_Z3min6Float4f_param_0" from 0x10 to 0x20
GPGPU-Sim PTX: allocating stack frame region for .param "_Z3min6Float4f_param_1" from 0x20 to 0x24
GPGPU-Sim PTX: instruction assembly for function '_Z3min6Float4f'...   done.
GPGPU-Sim PTX: finding reconvergence points for '_Z3min6Float4f'...
GPGPU-Sim PTX: Finding dominators for '_Z3min6Float4f'...
GPGPU-Sim PTX: Finding immediate dominators for '_Z3min6Float4f'...
GPGPU-Sim PTX: Finding postdominators for '_Z3min6Float4f'...
GPGPU-Sim PTX: Finding immediate postdominators for '_Z3min6Float4f'...
GPGPU-Sim PTX: pre-decoding instructions for '_Z3min6Float4f'...
GPGPU-Sim PTX: reconvergence points for _Z3min6Float4f...
GPGPU-Sim PTX: ... end of reconvergence points for _Z3min6Float4f
GPGPU-Sim PTX: ... done pre-decoding instructions for '_Z3min6Float4f'.
GPGPU-Sim PTX: allocating stack frame region for .param "func_retval0" from 0x0 to 0x10
GPGPU-Sim PTX: allocating stack frame region for .param "_Z5trunc6Float4_param_0" from 0x10 to 0x20
GPGPU-Sim PTX: instruction assembly for function '_Z5trunc6Float4'...   done.
GPGPU-Sim PTX: finding reconvergence points for '_Z5trunc6Float4'...
GPGPU-Sim PTX: Finding dominators for '_Z5trunc6Float4'...
GPGPU-Sim PTX: Finding immediate dominators for '_Z5trunc6Float4'...
GPGPU-Sim PTX: Finding postdominators for '_Z5trunc6Float4'...
GPGPU-Sim PTX: Finding immediate postdominators for '_Z5trunc6Float4'...
GPGPU-Sim PTX: pre-decoding instructions for '_Z5trunc6Float4'...
GPGPU-Sim PTX: reconvergence points for _Z5trunc6Float4...
GPGPU-Sim PTX: ... end of reconvergence points for _Z5trunc6Float4
GPGPU-Sim PTX: ... done pre-decoding instructions for '_Z5trunc6Float4'.
GPGPU-Sim PTX: allocating stack frame region for .param "func_retval0" from 0x0 to 0x10
GPGPU-Sim PTX: allocating stack frame region for .param "_Z3log6Float4_param_0" from 0x10 to 0x20
GPGPU-Sim PTX: instruction assembly for function '_Z3log6Float4'...   done.
GPGPU-Sim PTX: finding reconvergence points for '_Z3log6Float4'...
GPGPU-Sim PTX: Finding dominators for '_Z3log6Float4'...
GPGPU-Sim PTX: Finding immediate dominators for '_Z3log6Float4'...
GPGPU-Sim PTX: Finding postdominators for '_Z3log6Float4'...
GPGPU-Sim PTX: Finding immediate postdominators for '_Z3log6Float4'...
GPGPU-Sim PTX: pre-decoding instructions for '_Z3log6Float4'...
GPGPU-Sim PTX: reconvergence points for _Z3log6Float4...
GPGPU-Sim PTX: ... end of reconvergence points for _Z3log6Float4
GPGPU-Sim PTX: ... done pre-decoding instructions for '_Z3log6Float4'.
GPGPU-Sim PTX: allocating stack frame region for .param "func_retval0" from 0x0 to 0x10
GPGPU-Sim PTX: allocating stack frame region for .param "_Z3exp6Float4_param_0" from 0x10 to 0x20
GPGPU-Sim PTX: instruction assembly for function '_Z3exp6Float4'...   done.
GPGPU-Sim PTX: finding reconvergence points for '_Z3exp6Float4'...
GPGPU-Sim PTX: Finding dominators for '_Z3exp6Float4'...
GPGPU-Sim PTX: Finding immediate dominators for '_Z3exp6Float4'...
GPGPU-Sim PTX: Finding postdominators for '_Z3exp6Float4'...
GPGPU-Sim PTX: Finding immediate postdominators for '_Z3exp6Float4'...
GPGPU-Sim PTX: pre-decoding instructions for '_Z3exp6Float4'...
GPGPU-Sim PTX: reconvergence points for _Z3exp6Float4...
GPGPU-Sim PTX: ... end of reconvergence points for _Z3exp6Float4
GPGPU-Sim PTX: ... done pre-decoding instructions for '_Z3exp6Float4'.
GPGPU-Sim PTX: allocating stack frame region for .param "func_retval0" from 0x0 to 0x10
GPGPU-Sim PTX: allocating stack frame region for .param "_Z4sqrt6Float4_param_0" from 0x10 to 0x20
GPGPU-Sim PTX: instruction assembly for function '_Z4sqrt6Float4'...   done.
GPGPU-Sim PTX: finding reconvergence points for '_Z4sqrt6Float4'...
GPGPU-Sim PTX: Finding dominators for '_Z4sqrt6Float4'...
GPGPU-Sim PTX: Finding immediate dominators for '_Z4sqrt6Float4'...
GPGPU-Sim PTX: Finding postdominators for '_Z4sqrt6Float4'...
GPGPU-Sim PTX: Finding immediate postdominators for '_Z4sqrt6Float4'...
GPGPU-Sim PTX: pre-decoding instructions for '_Z4sqrt6Float4'...
GPGPU-Sim PTX: reconvergence points for _Z4sqrt6Float4...
GPGPU-Sim PTX: ... end of reconvergence points for _Z4sqrt6Float4
GPGPU-Sim PTX: ... done pre-decoding instructions for '_Z4sqrt6Float4'.
GPGPU-Sim PTX: allocating stack frame region for .local "__local_depot14" from 0x0 to 0x8c0
GPGPU-Sim PTX: instruction assembly for function '_Z8wsm5_gpuPfS_S_S_S_S_S_S_S_S_S_S_S_S_S_fS_iiiiiiiiiiiiiiiiii'...   done.
GPGPU-Sim PTX: finding reconvergence points for '_Z8wsm5_gpuPfS_S_S_S_S_S_S_S_S_S_S_S_S_S_fS_iiiiiiiiiiiiiiiiii'...
GPGPU-Sim PTX: Finding dominators for '_Z8wsm5_gpuPfS_S_S_S_S_S_S_S_S_S_S_S_S_S_fS_iiiiiiiiiiiiiiiiii'...
GPGPU-Sim PTX: Finding immediate dominators for '_Z8wsm5_gpuPfS_S_S_S_S_S_S_S_S_S_S_S_S_S_fS_iiiiiiiiiiiiiiiiii'...
GPGPU-Sim PTX: Finding postdominators for '_Z8wsm5_gpuPfS_S_S_S_S_S_S_S_S_S_S_S_S_S_fS_iiiiiiiiiiiiiiiiii'...
GPGPU-Sim PTX: Finding immediate postdominators for '_Z8wsm5_gpuPfS_S_S_S_S_S_S_S_S_S_S_S_S_S_fS_iiiiiiiiiiiiiiiiii'...
GPGPU-Sim PTX: pre-decoding instructions for '_Z8wsm5_gpuPfS_S_S_S_S_S_S_S_S_S_S_S_S_S_fS_iiiiiiiiiiiiiiiiii'...
GPGPU-Sim PTX: reconvergence points for _Z8wsm5_gpuPfS_S_S_S_S_S_S_S_S_S_S_S_S_S_fS_iiiiiiiiiiiiiiiiii...
GPGPU-Sim PTX:  1 (potential) branch divergence @  PC=0x8a0 (_1.ptx:614) @%p14 bra BB14_346;
GPGPU-Sim PTX:    immediate post dominator      @  PC=0x8dd0 (_1.ptx:7621) ret;
GPGPU-Sim PTX:  2 (potential) branch divergence @  PC=0x910 (_1.ptx:631) @%p15 bra BB14_346;
GPGPU-Sim PTX:    immediate post dominator      @  PC=0x8dd0 (_1.ptx:7621) ret;
GPGPU-Sim PTX:  3 (potential) branch divergence @  PC=0x9b0 (_1.ptx:663) @%p16 bra BB14_21;
GPGPU-Sim PTX:    immediate post dominator      @  PC=0x1088 (_1.ptx:1077) mov.f64 %fd392, 0d3FE1F01B866E43AB;
GPGPU-Sim PTX:  4 (potential) branch divergence @  PC=0x9d0 (_1.ptx:670) @%p17 bra BB14_21;
GPGPU-Sim PTX:    immediate post dominator      @  PC=0x1088 (_1.ptx:1077) mov.f64 %fd392, 0d3FE1F01B866E43AB;
GPGPU-Sim PTX:  5 (potential) branch divergence @  PC=0x9e0 (_1.ptx:674) @%p18 bra BB14_20;
GPGPU-Sim PTX:    immediate post dominator      @  PC=0x1088 (_1.ptx:1077) mov.f64 %fd392, 0d3FE1F01B866E43AB;
GPGPU-Sim PTX:  6 (potential) branch divergence @  PC=0x9f0 (_1.ptx:679) @%p19 bra BB14_19;
GPGPU-Sim PTX:    immediate post dominator      @  PC=0x1088 (_1.ptx:1077) mov.f64 %fd392, 0d3FE1F01B866E43AB;
GPGPU-Sim PTX:  7 (potential) branch divergence @  PC=0xa38 (_1.ptx:695) @%p20 bra BB14_18;
GPGPU-Sim PTX:    immediate post dominator      @  PC=0x1088 (_1.ptx:1077) mov.f64 %fd392, 0d3FE1F01B866E43AB;
GPGPU-Sim PTX:  8 (potential) branch divergence @  PC=0xa68 (_1.ptx:712) @%p21 bra BB14_8;
GPGPU-Sim PTX:    immediate post dominator      @  PC=0xaa8 (_1.ptx:734) add.s32 %r1120, %r1119, -1023;
GPGPU-Sim PTX:  9 (potential) branch divergence @  PC=0xa70 (_1.ptx:713) bra.uni BB14_9;
GPGPU-Sim PTX:    immediate post dominator      @  PC=0xaa8 (_1.ptx:734) add.s32 %r1120, %r1119, -1023;
GPGPU-Sim PTX: 10 (potential) branch divergence @  PC=0xad0 (_1.ptx:742) @%p22 bra BB14_10;
GPGPU-Sim PTX:    immediate post dominator      @  PC=0xb08 (_1.ptx:764) add.f64 %fd262, %fd1925, 0d3FF0000000000000;
GPGPU-Sim PTX: 11 (potential) branch divergence @  PC=0xad8 (_1.ptx:743) bra.uni BB14_11;
GPGPU-Sim PTX:    immediate post dominator      @  PC=0xb08 (_1.ptx:764) add.f64 %fd262, %fd1925, 0d3FF0000000000000;
GPGPU-Sim PTX: 12 (potential) branch divergence @  PC=0xe20 (_1.ptx:938) @%p26 bra BB14_13;
GPGPU-Sim PTX:    immediate post dominator      @  PC=0xfe8 (_1.ptx:1034) abs.f64 %fd387, %fd1926;
GPGPU-Sim PTX: 13 (potential) branch divergence @  PC=0xe58 (_1.ptx:949) bra.uni BB14_16;
GPGPU-Sim PTX:    immediate post dominator      @  PC=0xfe8 (_1.ptx:1034) abs.f64 %fd387, %fd1926;
GPGPU-Sim PTX: 14 (potential) branch divergence @  PC=0xf60 (_1.ptx:1003) @%p29 bra BB14_15;
GPGPU-Sim PTX:    immediate post dominator      @  PC=0xfe8 (_1.ptx:1034) abs.f64 %fd387, %fd1926;
GPGPU-Sim PTX: 15 (potential) branch divergence @  PC=0xfc8 (_1.ptx:1023) bra.uni BB14_16;
GPGPU-Sim PTX:    immediate post dominator      @  PC=0xfe8 (_1.ptx:1034) abs.f64 %fd387, %fd1926;
GPGPU-Sim PTX: 16 (potential) branch divergence @  PC=0xff8 (_1.ptx:1036) @%p31 bra BB14_17;
GPGPU-Sim PTX:    immediate post dominator      @  PC=0x1088 (_1.ptx:1077) mov.f64 %fd392, 0d3FE1F01B866E43AB;
GPGPU-Sim PTX: 17 (potential) branch divergence @  PC=0x1000 (_1.ptx:1037) bra.uni BB14_22;
GPGPU-Sim PTX:    immediate post dominator      @  PC=0x1088 (_1.ptx:1077) mov.f64 %fd392, 0d3FE1F01B866E43AB;
GPGPU-Sim PTX: 18 (potential) branch divergence @  PC=0x1010 (_1.ptx:1042) bra.uni BB14_22;
GPGPU-Sim PTX:    immediate post dominator      @  PC=0x1088 (_1.ptx:1077) mov.f64 %fd392, 0d3FE1F01B866E43AB;
GPGPU-Sim PTX: 19 (potential) branch divergence @  PC=0x1040 (_1.ptx:1053) bra.uni BB14_22;
GPGPU-Sim PTX:    immediate post dominator      @  PC=0x1088 (_1.ptx:1077) mov.f64 %fd392, 0d3FE1F01B866E43AB;
GPGPU-Sim PTX: 20 (potential) branch divergence @  PC=0x1058 (_1.ptx:1059) bra.uni BB14_22;
GPGPU-Sim PTX:    immediate post dominator      @  PC=0x1088 (_1.ptx:1077) mov.f64 %fd392, 0d3FE1F01B866E43AB;
GPGPU-Sim PTX: 21 (potential) branch divergence @  PC=0x1078 (_1.ptx:1070) bra.uni BB14_22;
GPGPU-Sim PTX:    immediate post dominator      @  PC=0x1088 (_1.ptx:1077) mov.f64 %fd392, 0d3FE1F01B866E43AB;
GPGPU-Sim PTX: 22 (potential) branch divergence @  PC=0x10b8 (_1.ptx:1086) @%p34 bra BB14_41;
GPGPU-Sim PTX:    immediate post dominator      @  PC=0x1790 (_1.ptx:1501) mul.f64 %fd45, %fd26, %fd1928;
GPGPU-Sim PTX: 23 (potential) branch divergence @  PC=0x10d8 (_1.ptx:1093) @%p35 bra BB14_41;
GPGPU-Sim PTX:    immediate post dominator      @  PC=0x1790 (_1.ptx:1501) mul.f64 %fd45, %fd26, %fd1928;
GPGPU-Sim PTX: 24 (potential) branch divergence @  PC=0x10e8 (_1.ptx:1097) @%p36 bra BB14_40;
GPGPU-Sim PTX:    immediate post dominator      @  PC=0x1790 (_1.ptx:1501) mul.f64 %fd45, %fd26, %fd1928;
GPGPU-Sim PTX: 25 (potential) branch divergence @  PC=0x10f8 (_1.ptx:1102) @%p37 bra BB14_39;
GPGPU-Sim PTX:    immediate post dominator      @  PC=0x1790 (_1.ptx:1501) mul.f64 %fd45, %fd26, %fd1928;
GPGPU-Sim PTX: 26 (potential) branch divergence @  PC=0x1140 (_1.ptx:1118) @%p38 bra BB14_38;
GPGPU-Sim PTX:    immediate post dominator      @  PC=0x1790 (_1.ptx:1501) mul.f64 %fd45, %fd26, %fd1928;
GPGPU-Sim PTX: 27 (potential) branch divergence @  PC=0x1170 (_1.ptx:1135) @%p39 bra BB14_28;
GPGPU-Sim PTX:    immediate post dominator      @  PC=0x11b0 (_1.ptx:1157) add.s32 %r1124, %r1123, -1023;
GPGPU-Sim PTX: 28 (potential) branch divergence @  PC=0x1178 (_1.ptx:1136) bra.uni BB14_29;
GPGPU-Sim PTX:    immediate post dominator      @  PC=0x11b0 (_1.ptx:1157) add.s32 %r1124, %r1123, -1023;
GPGPU-Sim PTX: 29 (potential) branch divergence @  PC=0x11d8 (_1.ptx:1165) @%p40 bra BB14_30;
GPGPU-Sim PTX:    immediate post dominator      @  PC=0x1210 (_1.ptx:1187) add.f64 %fd403, %fd1927, 0d3FF0000000000000;
GPGPU-Sim PTX: 30 (potential) branch divergence @  PC=0x11e0 (_1.ptx:1166) bra.uni BB14_31;
GPGPU-Sim PTX:    immediate post dominator      @  PC=0x1210 (_1.ptx:1187) add.f64 %fd403, %fd1927, 0d3FF0000000000000;
GPGPU-Sim PTX: 31 (potential) branch divergence @  PC=0x1528 (_1.ptx:1361) @%p44 bra BB14_33;
GPGPU-Sim PTX:    immediate post dominator      @  PC=0x16f0 (_1.ptx:1457) abs.f64 %fd528, %fd1928;
GPGPU-Sim PTX: 32 (potential) branch divergence @  PC=0x1560 (_1.ptx:1372) bra.uni BB14_36;
GPGPU-Sim PTX:    immediate post dominator      @  PC=0x16f0 (_1.ptx:1457) abs.f64 %fd528, %fd1928;
GPGPU-Sim PTX: 33 (potential) branch divergence @  PC=0x1668 (_1.ptx:1426) @%p47 bra BB14_35;
GPGPU-Sim PTX:    immediate post dominator      @  PC=0x16f0 (_1.ptx:1457) abs.f64 %fd528, %fd1928;
GPGPU-Sim PTX: 34 (potential) branch divergence @  PC=0x16d0 (_1.ptx:1446) bra.uni BB14_36;
GPGPU-Sim PTX:    immediate post dominator      @  PC=0x16f0 (_1.ptx:1457) abs.f64 %fd528, %fd1928;
GPGPU-Sim PTX: 35 (potential) branch divergence @  PC=0x1700 (_1.ptx:1459) @%p49 bra BB14_37;
GPGPU-Sim PTX:    immediate post dominator      @  PC=0x1790 (_1.ptx:1501) mul.f64 %fd45, %fd26, %fd1928;
GPGPU-Sim PTX: 36 (potential) branch divergence @  PC=0x1708 (_1.ptx:1460) bra.uni BB14_42;
GPGPU-Sim PTX:    immediate post dominator      @  PC=0x1790 (_1.ptx:1501) mul.f64 %fd45, %fd26, %fd1928;
GPGPU-Sim PTX: 37 (potential) branch divergence @  PC=0x1718 (_1.ptx:1465) bra.uni BB14_42;
GPGPU-Sim PTX:    immediate post dominator      @  PC=0x1790 (_1.ptx:1501) mul.f64 %fd45, %fd26, %fd1928;
GPGPU-Sim PTX: 38 (potential) branch divergence @  PC=0x1748 (_1.ptx:1476) bra.uni BB14_42;
GPGPU-Sim PTX:    immediate post dominator      @  PC=0x1790 (_1.ptx:1501) mul.f64 %fd45, %fd26, %fd1928;
GPGPU-Sim PTX: 39 (potential) branch divergence @  PC=0x1760 (_1.ptx:1482) bra.uni BB14_42;
GPGPU-Sim PTX:    immediate post dominator      @  PC=0x1790 (_1.ptx:1501) mul.f64 %fd45, %fd26, %fd1928;
GPGPU-Sim PTX: 40 (potential) branch divergence @  PC=0x1780 (_1.ptx:1493) bra.uni BB14_42;
GPGPU-Sim PTX:    immediate post dominator      @  PC=0x1790 (_1.ptx:1501) mul.f64 %fd45, %fd26, %fd1928;
GPGPU-Sim PTX: 41 (potential) branch divergence @  PC=0x1800 (_1.ptx:1522) @%p53 bra BB14_45;
GPGPU-Sim PTX:    immediate post dominator      @  PC=0x1850 (_1.ptx:1543) mul.f64 %fd53, %fd1930, 0d44919E47F21381F4;
GPGPU-Sim PTX: 42 (potential) branch divergence @  PC=0x1848 (_1.ptx:1539) @%p55 bra BB14_44;
GPGPU-Sim PTX:    immediate post dominator      @  PC=0x1850 (_1.ptx:1543) mul.f64 %fd53, %fd1930, 0d44919E47F21381F4;
GPGPU-Sim PTX: 43 (potential) branch divergence @  PC=0x1880 (_1.ptx:1549) @%p3 bra BB14_48;
GPGPU-Sim PTX:    immediate post dominator      @  PC=0x1968 (_1.ptx:1591) @%p3 bra BB14_59;
GPGPU-Sim PTX: 44 (potential) branch divergence @  PC=0x1960 (_1.ptx:1587) @%p56 bra BB14_47;
GPGPU-Sim PTX:    immediate post dominator      @  PC=0x1968 (_1.ptx:1591) @%p3 bra BB14_59;
GPGPU-Sim PTX: 45 (potential) branch divergence @  PC=0x1968 (_1.ptx:1591) @%p3 bra BB14_59;
GPGPU-Sim PTX:    immediate post dominator      @  PC=0x1af8 (_1.ptx:1673) @%p3 bra BB14_62;
GPGPU-Sim PTX: 46 (potential) branch divergence @  PC=0x1a18 (_1.ptx:1621) @%p57 bra BB14_52;
GPGPU-Sim PTX:    immediate post dominator      @  PC=0x1a30 (_1.ptx:1629) shl.b64 %rl113, %rl23, 2;
GPGPU-Sim PTX: 47 (potential) branch divergence @  PC=0x1a58 (_1.ptx:1634) @%p58 bra BB14_54;
GPGPU-Sim PTX:    immediate post dominator      @  PC=0x1a70 (_1.ptx:1642) add.s64 %rl26, %rl18, %rl113;
GPGPU-Sim PTX: 48 (potential) branch divergence @  PC=0x1a90 (_1.ptx:1646) @%p59 bra BB14_56;
GPGPU-Sim PTX:    immediate post dominator      @  PC=0x1aa8 (_1.ptx:1654) add.s64 %rl27, %rl17, %rl113;
GPGPU-Sim PTX: 49 (potential) branch divergence @  PC=0x1ac8 (_1.ptx:1658) @%p60 bra BB14_58;
GPGPU-Sim PTX:    immediate post dominator      @  PC=0x1ae0 (_1.ptx:1666) add.s32 %r1129, %r1129, 1;
GPGPU-Sim PTX: 50 (potential) branch divergence @  PC=0x1af0 (_1.ptx:1669) @%p61 bra BB14_50;
GPGPU-Sim PTX:    immediate post dominator      @  PC=0x1af8 (_1.ptx:1673) @%p3 bra BB14_62;
GPGPU-Sim PTX: 51 (potential) branch divergence @  PC=0x1af8 (_1.ptx:1673) @%p3 bra BB14_62;
GPGPU-Sim PTX:    immediate post dominator      @  PC=0x1c58 (_1.ptx:1735) mov.f32 %f263, 0f42F00000;
GPGPU-Sim PTX: 52 (potential) branch divergence @  PC=0x1c50 (_1.ptx:1732) @%p62 bra BB14_61;
GPGPU-Sim PTX:    immediate post dominator      @  PC=0x1c58 (_1.ptx:1735) mov.f32 %f263, 0f42F00000;
GPGPU-Sim PTX: 53 (potential) branch divergence @  PC=0x1cb8 (_1.ptx:1755) @%p64 bra BB14_343;
GPGPU-Sim PTX:    immediate post dominator      @  PC=0x8c70 (_1.ptx:7559) ld.param.u32 %r1083, [_Z8wsm5_gpuPfS_S_S_S_S_S_S_S_S_S_S_S_S_S_fS_iiiiiiiiiiiiiiiiii_param_33];
GPGPU-Sim PTX: 54 (potential) branch divergence @  PC=0x1e80 (_1.ptx:1841) @%p65 bra BB14_83;
GPGPU-Sim PTX:    immediate post dominator      @  PC=0x26f8 (_1.ptx:2284) ld.param.u32 %r1096, [_Z8wsm5_gpuPfS_S_S_S_S_S_S_S_S_S_S_S_S_S_fS_iiiiiiiiiiiiiiiiii_param_33];
GPGPU-Sim PTX: 55 (potential) branch divergence @  PC=0x1fc0 (_1.ptx:1899) @%p4 bra BB14_68;
GPGPU-Sim PTX:    immediate post dominator      @  PC=0x2188 (_1.ptx:1995) mul.f64 %fd612, %fd1931, 0d4083163D80000000;
GPGPU-Sim PTX: 56 (potential) branch divergence @  PC=0x1ff8 (_1.ptx:1910) bra.uni BB14_71;
GPGPU-Sim PTX:    immediate post dominator      @  PC=0x2188 (_1.ptx:1995) mul.f64 %fd612, %fd1931, 0d4083163D80000000;
GPGPU-Sim PTX: 57 (potential) branch divergence @  PC=0x2100 (_1.ptx:1964) @%p70 bra BB14_70;
GPGPU-Sim PTX:    immediate post dominator      @  PC=0x2188 (_1.ptx:1995) mul.f64 %fd612, %fd1931, 0d4083163D80000000;
GPGPU-Sim PTX: 58 (potential) branch divergence @  PC=0x2168 (_1.ptx:1984) bra.uni BB14_71;
GPGPU-Sim PTX:    immediate post dominator      @  PC=0x2188 (_1.ptx:1995) mul.f64 %fd612, %fd1931, 0d4083163D80000000;
GPGPU-Sim PTX: 59 (potential) branch divergence @  PC=0x2260 (_1.ptx:2036) @%p72 bra BB14_77;
GPGPU-Sim PTX:    immediate post dominator      @  PC=0x2638 (_1.ptx:2244) mul.f64 %fd691, %fd1932, 0d4083163D80000000;
GPGPU-Sim PTX: 60 (potential) branch divergence @  PC=0x2268 (_1.ptx:2039) @%p4 bra BB14_74;
GPGPU-Sim PTX:    immediate post dominator      @  PC=0x2638 (_1.ptx:2244) mul.f64 %fd691, %fd1932, 0d4083163D80000000;
GPGPU-Sim PTX: 61 (potential) branch divergence @  PC=0x22a0 (_1.ptx:2050) bra.uni BB14_82;
GPGPU-Sim PTX:    immediate post dominator      @  PC=0x2638 (_1.ptx:2244) mul.f64 %fd691, %fd1932, 0d4083163D80000000;
GPGPU-Sim PTX: 62 (potential) branch divergence @  PC=0x23a8 (_1.ptx:2104) @%p75 bra BB14_76;
GPGPU-Sim PTX:    immediate post dominator      @  PC=0x2638 (_1.ptx:2244) mul.f64 %fd691, %fd1932, 0d4083163D80000000;
GPGPU-Sim PTX: 63 (potential) branch divergence @  PC=0x2410 (_1.ptx:2124) bra.uni BB14_82;
GPGPU-Sim PTX:    immediate post dominator      @  PC=0x2638 (_1.ptx:2244) mul.f64 %fd691, %fd1932, 0d4083163D80000000;
GPGPU-Sim PTX: 64 (potential) branch divergence @  PC=0x2430 (_1.ptx:2132) bra.uni BB14_82;
GPGPU-Sim PTX:    immediate post dominator      @  PC=0x2638 (_1.ptx:2244) mul.f64 %fd691, %fd1932, 0d4083163D80000000;
GPGPU-Sim PTX: 65 (potential) branch divergence @  PC=0x2470 (_1.ptx:2149) @%p79 bra BB14_79;
GPGPU-Sim PTX:    immediate post dominator      @  PC=0x2638 (_1.ptx:2244) mul.f64 %fd691, %fd1932, 0d4083163D80000000;
GPGPU-Sim PTX: 66 (potential) branch divergence @  PC=0x24a8 (_1.ptx:2160) bra.uni BB14_82;
GPGPU-Sim PTX:    immediate post dominator      @  PC=0x2638 (_1.ptx:2244) mul.f64 %fd691, %fd1932, 0d4083163D80000000;
GPGPU-Sim PTX: 67 (potential) branch divergence @  PC=0x25b0 (_1.ptx:2214) @%p82 bra BB14_81;
GPGPU-Sim PTX:    immediate post dominator      @  PC=0x2638 (_1.ptx:2244) mul.f64 %fd691, %fd1932, 0d4083163D80000000;
GPGPU-Sim PTX: 68 (potential) branch divergence @  PC=0x2618 (_1.ptx:2234) bra.uni BB14_82;
GPGPU-Sim PTX:    immediate post dominator      @  PC=0x2638 (_1.ptx:2244) mul.f64 %fd691, %fd1932, 0d4083163D80000000;
GPGPU-Sim PTX: 69 (potential) branch divergence @  PC=0x26f0 (_1.ptx:2281) @%p84 bra BB14_66;
GPGPU-Sim PTX:    immediate post dominator      @  PC=0x26f8 (_1.ptx:2284) ld.param.u32 %r1096, [_Z8wsm5_gpuPfS_S_S_S_S_S_S_S_S_S_S_S_S_S_fS_iiiiiiiiiiiiiiiiii_param_33];
GPGPU-Sim PTX: 70 (potential) branch divergence @  PC=0x2720 (_1.ptx:2290) @%p85 bra BB14_86;
GPGPU-Sim PTX:    immediate post dominator      @  PC=0x2788 (_1.ptx:2311) ld.param.u32 %r1094, [_Z8wsm5_gpuPfS_S_S_S_S_S_S_S_S_S_S_S_S_S_fS_iiiiiiiiiiiiiiiiii_param_33];
GPGPU-Sim PTX: 71 (potential) branch divergence @  PC=0x2780 (_1.ptx:2308) @%p86 bra BB14_85;
GPGPU-Sim PTX:    immediate post dominator      @  PC=0x2788 (_1.ptx:2311) ld.param.u32 %r1094, [_Z8wsm5_gpuPfS_S_S_S_S_S_S_S_S_S_S_S_S_S_fS_iiiiiiiiiiiiiiiiii_param_33];
GPGPU-Sim PTX: 72 (potential) branch divergence @  PC=0x27b0 (_1.ptx:2317) @%p87 bra BB14_110;
GPGPU-Sim PTX:    immediate post dominator      @  PC=0x33b8 (_1.ptx:2925) cvt.rn.f64.s32 %fd860, %r1135;
GPGPU-Sim PTX: 73 (potential) branch divergence @  PC=0x28c8 (_1.ptx:2365) @%p90 bra BB14_90;
GPGPU-Sim PTX:    immediate post dominator      @  PC=0x2a90 (_1.ptx:2460) mov.f64 %fd739, 0d40E86A0000000000;
GPGPU-Sim PTX: 74 (potential) branch divergence @  PC=0x2900 (_1.ptx:2376) bra.uni BB14_93;
GPGPU-Sim PTX:    immediate post dominator      @  PC=0x2a90 (_1.ptx:2460) mov.f64 %fd739, 0d40E86A0000000000;
GPGPU-Sim PTX: 75 (potential) branch divergence @  PC=0x2a08 (_1.ptx:2430) @%p93 bra BB14_92;
GPGPU-Sim PTX:    immediate post dominator      @  PC=0x2a90 (_1.ptx:2460) mov.f64 %fd739, 0d40E86A0000000000;
GPGPU-Sim PTX: 76 (potential) branch divergence @  PC=0x2a70 (_1.ptx:2450) bra.uni BB14_93;
GPGPU-Sim PTX:    immediate post dominator      @  PC=0x2a90 (_1.ptx:2460) mov.f64 %fd739, 0d40E86A0000000000;
GPGPU-Sim PTX: 77 (potential) branch divergence @  PC=0x2b88 (_1.ptx:2499) @%p95 bra BB14_95;
GPGPU-Sim PTX:    immediate post dominator      @  PC=0x2e58 (_1.ptx:2653) shl.b64 %rl162, %rl38, 2;
GPGPU-Sim PTX: 78 (potential) branch divergence @  PC=0x2bc8 (_1.ptx:2512) bra.uni BB14_101;
GPGPU-Sim PTX:    immediate post dominator      @  PC=0x2e58 (_1.ptx:2653) shl.b64 %rl162, %rl38, 2;
GPGPU-Sim PTX: 79 (potential) branch divergence @  PC=0x2c60 (_1.ptx:2546) @%p98 bra BB14_97;
GPGPU-Sim PTX:    immediate post dominator      @  PC=0x2e28 (_1.ptx:2642) cvt.rn.ftz.f32.f64 %f665, %fd1934;
GPGPU-Sim PTX: 80 (potential) branch divergence @  PC=0x2c98 (_1.ptx:2557) bra.uni BB14_100;
GPGPU-Sim PTX:    immediate post dominator      @  PC=0x2e28 (_1.ptx:2642) cvt.rn.ftz.f32.f64 %f665, %fd1934;
GPGPU-Sim PTX: 81 (potential) branch divergence @  PC=0x2da0 (_1.ptx:2611) @%p101 bra BB14_99;
GPGPU-Sim PTX:    immediate post dominator      @  PC=0x2e28 (_1.ptx:2642) cvt.rn.ftz.f32.f64 %f665, %fd1934;
GPGPU-Sim PTX: 82 (potential) branch divergence @  PC=0x2e08 (_1.ptx:2631) bra.uni BB14_100;
GPGPU-Sim PTX:    immediate post dominator      @  PC=0x2e28 (_1.ptx:2642) cvt.rn.ftz.f32.f64 %f665, %fd1934;
GPGPU-Sim PTX: 83 (potential) branch divergence @  PC=0x2ee0 (_1.ptx:2671) @%p103 bra BB14_103;
GPGPU-Sim PTX:    immediate post dominator      @  PC=0x31c0 (_1.ptx:2827) cvt.ftz.f64.f32 %fd832, %f667;
GPGPU-Sim PTX: 84 (potential) branch divergence @  PC=0x2f28 (_1.ptx:2685) bra.uni BB14_109;
GPGPU-Sim PTX:    immediate post dominator      @  PC=0x31c0 (_1.ptx:2827) cvt.ftz.f64.f32 %fd832, %f667;
GPGPU-Sim PTX: 85 (potential) branch divergence @  PC=0x2fc8 (_1.ptx:2720) @%p106 bra BB14_105;
GPGPU-Sim PTX:    immediate post dominator      @  PC=0x3190 (_1.ptx:2816) cvt.rn.ftz.f32.f64 %f666, %fd1935;
GPGPU-Sim PTX: 86 (potential) branch divergence @  PC=0x3000 (_1.ptx:2731) bra.uni BB14_108;
GPGPU-Sim PTX:    immediate post dominator      @  PC=0x3190 (_1.ptx:2816) cvt.rn.ftz.f32.f64 %f666, %fd1935;
GPGPU-Sim PTX: 87 (potential) branch divergence @  PC=0x3108 (_1.ptx:2785) @%p109 bra BB14_107;
GPGPU-Sim PTX:    immediate post dominator      @  PC=0x3190 (_1.ptx:2816) cvt.rn.ftz.f32.f64 %f666, %fd1935;
GPGPU-Sim PTX: 88 (potential) branch divergence @  PC=0x3170 (_1.ptx:2805) bra.uni BB14_108;
GPGPU-Sim PTX:    immediate post dominator      @  PC=0x3190 (_1.ptx:2816) cvt.rn.ftz.f32.f64 %f666, %fd1935;
GPGPU-Sim PTX: 89 (potential) branch divergence @  PC=0x33a0 (_1.ptx:2917) @%p111 bra BB14_88;
GPGPU-Sim PTX:    immediate post dominator      @  PC=0x33a8 (_1.ptx:2918) bra.uni BB14_111;
GPGPU-Sim PTX: 90 (potential) branch divergence @  PC=0x33a8 (_1.ptx:2918) bra.uni BB14_111;
GPGPU-Sim PTX:    immediate post dominator      @  PC=0x33b8 (_1.ptx:2925) cvt.rn.f64.s32 %fd860, %r1135;
GPGPU-Sim PTX: 91 (potential) branch divergence @  PC=0x33d8 (_1.ptx:2930) @%p112 bra BB14_148;
GPGPU-Sim PTX:    immediate post dominator      @  PC=0x43b8 (_1.ptx:3741) mov.f32 %f690, %f689;
GPGPU-Sim PTX: 92 (potential) branch divergence @  PC=0x3670 (_1.ptx:3045) @%p6 bra BB14_117;
GPGPU-Sim PTX:    immediate post dominator      @  PC=0x38b8 (_1.ptx:3144) mov.f32 %f689, %f688;
GPGPU-Sim PTX: 93 (potential) branch divergence @  PC=0x38a0 (_1.ptx:3138) @%p113 bra BB14_115;
GPGPU-Sim PTX:    immediate post dominator      @  PC=0x38a8 (_1.ptx:3140) mov.f32 %f676, %f44;
GPGPU-Sim PTX: 94 (potential) branch divergence @  PC=0x38c8 (_1.ptx:3147) @%p5 bra BB14_146;
GPGPU-Sim PTX:    immediate post dominator      @  PC=0x4378 (_1.ptx:3730) setp.gt.s32 %p139, %r1136, %r1135;
GPGPU-Sim PTX: 95 (potential) branch divergence @  PC=0x3930 (_1.ptx:3165) @%p114 bra BB14_145;
GPGPU-Sim PTX:    immediate post dominator      @  PC=0x4360 (_1.ptx:3723) add.s32 %r1138, %r1138, -1;
GPGPU-Sim PTX: 96 (potential) branch divergence @  PC=0x39b8 (_1.ptx:3187) @%p115 bra BB14_145;
GPGPU-Sim PTX:    immediate post dominator      @  PC=0x4360 (_1.ptx:3723) add.s32 %r1138, %r1138, -1;
GPGPU-Sim PTX: 97 (potential) branch divergence @  PC=0x3a68 (_1.ptx:3224) @%p118 bra BB14_123;
GPGPU-Sim PTX:    immediate post dominator      @  PC=0x3c30 (_1.ptx:3319) ld.param.u64 %rl390, [_Z8wsm5_gpuPfS_S_S_S_S_S_S_S_S_S_S_S_S_S_fS_iiiiiiiiiiiiiiiiii_param_8];
GPGPU-Sim PTX: 98 (potential) branch divergence @  PC=0x3aa0 (_1.ptx:3235) bra.uni BB14_126;
GPGPU-Sim PTX:    immediate post dominator      @  PC=0x3c30 (_1.ptx:3319) ld.param.u64 %rl390, [_Z8wsm5_gpuPfS_S_S_S_S_S_S_S_S_S_S_S_S_S_fS_iiiiiiiiiiiiiiiiii_param_8];
GPGPU-Sim PTX: 99 (potential) branch divergence @  PC=0x3ba8 (_1.ptx:3289) @%p121 bra BB14_125;
GPGPU-Sim PTX:    immediate post dominator      @  PC=0x3c30 (_1.ptx:3319) ld.param.u64 %rl390, [_Z8wsm5_gpuPfS_S_S_S_S_S_S_S_S_S_S_S_S_S_fS_iiiiiiiiiiiiiiiiii_param_8];
GPGPU-Sim PTX: 100 (potential) branch divergence @  PC=0x3c10 (_1.ptx:3309) bra.uni BB14_126;
GPGPU-Sim PTX:    immediate post dominator      @  PC=0x3c30 (_1.ptx:3319) ld.param.u64 %rl390, [_Z8wsm5_gpuPfS_S_S_S_S_S_S_S_S_S_S_S_S_S_fS_iiiiiiiiiiiiiiiiii_param_8];
GPGPU-Sim PTX: 101 (potential) branch divergence @  PC=0x3c98 (_1.ptx:3344) @%p125 bra BB14_133;
GPGPU-Sim PTX:    immediate post dominator      @  PC=0x3f18 (_1.ptx:3511) mul.f64 %fd110, %fd1951, 0d3FD55555318ABC87;
GPGPU-Sim PTX: 102 (potential) branch divergence @  PC=0x3cb0 (_1.ptx:3350) @%p126 bra BB14_132;
GPGPU-Sim PTX:    immediate post dominator      @  PC=0x3f18 (_1.ptx:3511) mul.f64 %fd110, %fd1951, 0d3FD55555318ABC87;
GPGPU-Sim PTX: 103 (potential) branch divergence @  PC=0x3cc0 (_1.ptx:3354) @%p127 bra BB14_131;
GPGPU-Sim PTX:    immediate post dominator      @  PC=0x3f18 (_1.ptx:3511) mul.f64 %fd110, %fd1951, 0d3FD55555318ABC87;
GPGPU-Sim PTX: 104 (potential) branch divergence @  PC=0x3cd0 (_1.ptx:3358) @%p128 bra BB14_139;
GPGPU-Sim PTX:    immediate post dominator      @  PC=0x3f18 (_1.ptx:3511) mul.f64 %fd110, %fd1951, 0d3FD55555318ABC87;
GPGPU-Sim PTX: 105 (potential) branch divergence @  PC=0x3ce0 (_1.ptx:3361) bra.uni BB14_139;
GPGPU-Sim PTX:    immediate post dominator      @  PC=0x3f18 (_1.ptx:3511) mul.f64 %fd110, %fd1951, 0d3FD55555318ABC87;
GPGPU-Sim PTX: 106 (potential) branch divergence @  PC=0x3cf0 (_1.ptx:3366) bra.uni BB14_139;
GPGPU-Sim PTX:    immediate post dominator      @  PC=0x3f18 (_1.ptx:3511) mul.f64 %fd110, %fd1951, 0d3FD55555318ABC87;
GPGPU-Sim PTX: 107 (potential) branch divergence @  PC=0x3d00 (_1.ptx:3371) bra.uni BB14_139;
GPGPU-Sim PTX:    immediate post dominator      @  PC=0x3f18 (_1.ptx:3511) mul.f64 %fd110, %fd1951, 0d3FD55555318ABC87;
GPGPU-Sim PTX: 108 (potential) branch divergence @  PC=0x3d10 (_1.ptx:3376) @%p129 bra BB14_135;
GPGPU-Sim PTX:    immediate post dominator      @  PC=0x3d48 (_1.ptx:3398) shr.s32 %r531, %r1139, 20;
GPGPU-Sim PTX: 109 (potential) branch divergence @  PC=0x3d20 (_1.ptx:3379) bra.uni BB14_136;
GPGPU-Sim PTX:    immediate post dominator      @  PC=0x3d48 (_1.ptx:3398) shr.s32 %r531, %r1139, 20;
GPGPU-Sim PTX: 110 (potential) branch divergence @  PC=0x3d78 (_1.ptx:3407) @%p130 bra BB14_137;
GPGPU-Sim PTX:    immediate post dominator      @  PC=0x3db0 (_1.ptx:3429) add.f64 %fd917, %fd1937, 0d3FF0000000000000;
GPGPU-Sim PTX: 111 (potential) branch divergence @  PC=0x3d80 (_1.ptx:3408) bra.uni BB14_138;
GPGPU-Sim PTX:    immediate post dominator      @  PC=0x3db0 (_1.ptx:3429) add.f64 %fd917, %fd1937, 0d3FF0000000000000;
GPGPU-Sim PTX: 112 (potential) branch divergence @  PC=0x3f40 (_1.ptx:3522) @%p133 bra BB14_141;
GPGPU-Sim PTX:    immediate post dominator      @  PC=0x4108 (_1.ptx:3618) ld.global.f32 %f373, [%rl60];
GPGPU-Sim PTX: 113 (potential) branch divergence @  PC=0x3f78 (_1.ptx:3533) bra.uni BB14_144;
GPGPU-Sim PTX:    immediate post dominator      @  PC=0x4108 (_1.ptx:3618) ld.global.f32 %f373, [%rl60];
GPGPU-Sim PTX: 114 (potential) branch divergence @  PC=0x4080 (_1.ptx:3587) @%p136 bra BB14_143;
GPGPU-Sim PTX:    immediate post dominator      @  PC=0x4108 (_1.ptx:3618) ld.global.f32 %f373, [%rl60];
GPGPU-Sim PTX: 115 (potential) branch divergence @  PC=0x40e8 (_1.ptx:3607) bra.uni BB14_144;
GPGPU-Sim PTX:    immediate post dominator      @  PC=0x4108 (_1.ptx:3618) ld.global.f32 %f373, [%rl60];
GPGPU-Sim PTX: 116 (potential) branch divergence @  PC=0x4370 (_1.ptx:3726) @%p138 bra BB14_119;
GPGPU-Sim PTX:    immediate post dominator      @  PC=0x4378 (_1.ptx:3730) setp.gt.s32 %p139, %r1136, %r1135;
GPGPU-Sim PTX: 117 (potential) branch divergence @  PC=0x4380 (_1.ptx:3731) @%p139 bra BB14_148;
GPGPU-Sim PTX:    immediate post dominator      @  PC=0x43b8 (_1.ptx:3741) mov.f32 %f690, %f689;
GPGPU-Sim PTX: 118 (potential) branch divergence @  PC=0x43b0 (_1.ptx:3738) bra.uni BB14_113;
GPGPU-Sim PTX:    immediate post dominator      @  PC=0x3588 (_1.ptx:3003) mov.f32 %f680, %f687;
GPGPU-Sim PTX: 119 (potential) branch divergence @  PC=0x43f0 (_1.ptx:3750) @%p140 bra BB14_159;
GPGPU-Sim PTX:    immediate post dominator      @  PC=0x4878 (_1.ptx:3979) cvt.rn.f64.s32 %fd1080, %r1144;
GPGPU-Sim PTX: 120 (potential) branch divergence @  PC=0x44c8 (_1.ptx:3785) @%p141 bra BB14_152;
GPGPU-Sim PTX:    immediate post dominator      @  PC=0x47f0 (_1.ptx:3952) shl.b64 %rl244, %rl410, 2;
GPGPU-Sim PTX: 121 (potential) branch divergence @  PC=0x44e0 (_1.ptx:3790) bra.uni BB14_158;
GPGPU-Sim PTX:    immediate post dominator      @  PC=0x47f0 (_1.ptx:3952) shl.b64 %rl244, %rl410, 2;
GPGPU-Sim PTX: 122 (potential) branch divergence @  PC=0x45c8 (_1.ptx:3838) @%p144 bra BB14_154;
GPGPU-Sim PTX:    immediate post dominator      @  PC=0x4790 (_1.ptx:3934) mul.f64 %fd1075, %fd1939, 0d40CD1A0000000000;
GPGPU-Sim PTX: 123 (potential) branch divergence @  PC=0x4600 (_1.ptx:3849) bra.uni BB14_157;
GPGPU-Sim PTX:    immediate post dominator      @  PC=0x4790 (_1.ptx:3934) mul.f64 %fd1075, %fd1939, 0d40CD1A0000000000;
GPGPU-Sim PTX: 124 (potential) branch divergence @  PC=0x4708 (_1.ptx:3903) @%p147 bra BB14_156;
GPGPU-Sim PTX:    immediate post dominator      @  PC=0x4790 (_1.ptx:3934) mul.f64 %fd1075, %fd1939, 0d40CD1A0000000000;
GPGPU-Sim PTX: 125 (potential) branch divergence @  PC=0x4770 (_1.ptx:3923) bra.uni BB14_157;
GPGPU-Sim PTX:    immediate post dominator      @  PC=0x4790 (_1.ptx:3934) mul.f64 %fd1075, %fd1939, 0d40CD1A0000000000;
GPGPU-Sim PTX: 126 (potential) branch divergence @  PC=0x4860 (_1.ptx:3971) @%p149 bra BB14_150;
GPGPU-Sim PTX:    immediate post dominator      @  PC=0x4868 (_1.ptx:3972) bra.uni BB14_160;
GPGPU-Sim PTX: 127 (potential) branch divergence @  PC=0x4868 (_1.ptx:3972) bra.uni BB14_160;
GPGPU-Sim PTX:    immediate post dominator      @  PC=0x4878 (_1.ptx:3979) cvt.rn.f64.s32 %fd1080, %r1144;
GPGPU-Sim PTX: 128 (potential) branch divergence @  PC=0x4898 (_1.ptx:3984) @%p150 bra BB14_167;
GPGPU-Sim PTX:    immediate post dominator      @  PC=0x4c18 (_1.ptx:4151) add.ftz.f32 %f429, %f690, %f678;
GPGPU-Sim PTX: 129 (potential) branch divergence @  PC=0x4a70 (_1.ptx:4069) @%p7 bra BB14_165;
GPGPU-Sim PTX:    immediate post dominator      @  PC=0x4bf8 (_1.ptx:4143) setp.gt.s32 %p152, %r1145, %r1144;
GPGPU-Sim PTX: 130 (potential) branch divergence @  PC=0x4bf0 (_1.ptx:4139) @%p151 bra BB14_164;
GPGPU-Sim PTX:    immediate post dominator      @  PC=0x4bf8 (_1.ptx:4143) setp.gt.s32 %p152, %r1145, %r1144;
GPGPU-Sim PTX: 131 (potential) branch divergence @  PC=0x4c00 (_1.ptx:4144) @%p152 bra BB14_167;
GPGPU-Sim PTX:    immediate post dominator      @  PC=0x4c18 (_1.ptx:4151) add.ftz.f32 %f429, %f690, %f678;
GPGPU-Sim PTX: 132 (potential) branch divergence @  PC=0x4c10 (_1.ptx:4147) bra.uni BB14_162;
GPGPU-Sim PTX:    immediate post dominator      @  PC=0x4a00 (_1.ptx:4046) ld.global.f32 %f408, [%rl70];
GPGPU-Sim PTX: 133 (potential) branch divergence @  PC=0x4cf8 (_1.ptx:4188) @%p153 bra BB14_169;
GPGPU-Sim PTX:    immediate post dominator      @  PC=0x4eb0 (_1.ptx:4265) ld.param.u64 %rl409, [_Z8wsm5_gpuPfS_S_S_S_S_S_S_S_S_S_S_S_S_S_fS_iiiiiiiiiiiiiiiiii_param_14];
GPGPU-Sim PTX: 134 (potential) branch divergence @  PC=0x4f60 (_1.ptx:4294) @%p154 bra BB14_171;
GPGPU-Sim PTX:    immediate post dominator      @  PC=0x5120 (_1.ptx:4372) ld.param.u64 %rl406, [_Z8wsm5_gpuPfS_S_S_S_S_S_S_S_S_S_S_S_S_S_fS_iiiiiiiiiiiiiiiiii_param_12];
GPGPU-Sim PTX: 135 (potential) branch divergence @  PC=0x51c0 (_1.ptx:4399) @!%p8 bra BB14_173;
GPGPU-Sim PTX:    immediate post dominator      @  PC=0x5350 (_1.ptx:4472) ld.param.u32 %r1085, [_Z8wsm5_gpuPfS_S_S_S_S_S_S_S_S_S_S_S_S_S_fS_iiiiiiiiiiiiiiiiii_param_33];
GPGPU-Sim PTX: 136 (potential) branch divergence @  PC=0x5378 (_1.ptx:4478) @%p155 bra BB14_342;
GPGPU-Sim PTX:    immediate post dominator      @  PC=0x8c58 (_1.ptx:7553) add.s32 %r1131, %r1131, 1;
GPGPU-Sim PTX: 137 (potential) branch divergence @  PC=0x5568 (_1.ptx:4561) @%p156 bra BB14_178;
GPGPU-Sim PTX:    immediate post dominator      @  PC=0x55b8 (_1.ptx:4580) setp.leu.f64 %p158, %fd122, 0d4044000000000000;
GPGPU-Sim PTX: 138 (potential) branch divergence @  PC=0x5580 (_1.ptx:4565) @%p157 bra BB14_177;
GPGPU-Sim PTX:    immediate post dominator      @  PC=0x55b8 (_1.ptx:4580) setp.leu.f64 %p158, %fd122, 0d4044000000000000;
GPGPU-Sim PTX: 139 (potential) branch divergence @  PC=0x5588 (_1.ptx:4566) bra.uni BB14_178;
GPGPU-Sim PTX:    immediate post dominator      @  PC=0x55b8 (_1.ptx:4580) setp.leu.f64 %p158, %fd122, 0d4044000000000000;
GPGPU-Sim PTX: 140 (potential) branch divergence @  PC=0x55c0 (_1.ptx:4581) @%p158 bra BB14_181;
GPGPU-Sim PTX:    immediate post dominator      @  PC=0x5608 (_1.ptx:4598) ld.param.u64 %rl381, [_Z8wsm5_gpuPfS_S_S_S_S_S_S_S_S_S_S_S_S_S_fS_iiiiiiiiiiiiiiiiii_param_7];
GPGPU-Sim PTX: 141 (potential) branch divergence @  PC=0x55d8 (_1.ptx:4585) @%p159 bra BB14_180;
GPGPU-Sim PTX:    immediate post dominator      @  PC=0x5608 (_1.ptx:4598) ld.param.u64 %rl381, [_Z8wsm5_gpuPfS_S_S_S_S_S_S_S_S_S_S_S_S_S_fS_iiiiiiiiiiiiiiiiii_param_7];
GPGPU-Sim PTX: 142 (potential) branch divergence @  PC=0x55e0 (_1.ptx:4586) bra.uni BB14_181;
GPGPU-Sim PTX:    immediate post dominator      @  PC=0x5608 (_1.ptx:4598) ld.param.u64 %rl381, [_Z8wsm5_gpuPfS_S_S_S_S_S_S_S_S_S_S_S_S_S_fS_iiiiiiiiiiiiiiiiii_param_7];
GPGPU-Sim PTX: 143 (potential) branch divergence @  PC=0x5638 (_1.ptx:4606) @%p160 bra BB14_189;
GPGPU-Sim PTX:    immediate post dominator      @  PC=0x58d0 (_1.ptx:4748) shl.b64 %rl313, %rl76, 2;
GPGPU-Sim PTX: 144 (potential) branch divergence @  PC=0x5650 (_1.ptx:4610) @%p161 bra BB14_183;
GPGPU-Sim PTX:    immediate post dominator      @  PC=0x58d0 (_1.ptx:4748) shl.b64 %rl313, %rl76, 2;
GPGPU-Sim PTX: 145 (potential) branch divergence @  PC=0x5658 (_1.ptx:4611) bra.uni BB14_189;
GPGPU-Sim PTX:    immediate post dominator      @  PC=0x58d0 (_1.ptx:4748) shl.b64 %rl313, %rl76, 2;
GPGPU-Sim PTX: 146 (potential) branch divergence @  PC=0x5688 (_1.ptx:4626) @%p164 bra BB14_185;
GPGPU-Sim PTX:    immediate post dominator      @  PC=0x5850 (_1.ptx:4721) add.f64 %fd1154, %fd1940, 0dBFF0000000000000;
GPGPU-Sim PTX: 147 (potential) branch divergence @  PC=0x56c0 (_1.ptx:4637) bra.uni BB14_188;
GPGPU-Sim PTX:    immediate post dominator      @  PC=0x5850 (_1.ptx:4721) add.f64 %fd1154, %fd1940, 0dBFF0000000000000;
GPGPU-Sim PTX: 148 (potential) branch divergence @  PC=0x57c8 (_1.ptx:4691) @%p167 bra BB14_187;
GPGPU-Sim PTX:    immediate post dominator      @  PC=0x5850 (_1.ptx:4721) add.f64 %fd1154, %fd1940, 0dBFF0000000000000;
GPGPU-Sim PTX: 149 (potential) branch divergence @  PC=0x5830 (_1.ptx:4711) bra.uni BB14_188;
GPGPU-Sim PTX:    immediate post dominator      @  PC=0x5850 (_1.ptx:4721) add.f64 %fd1154, %fd1940, 0dBFF0000000000000;
GPGPU-Sim PTX: 150 (potential) branch divergence @  PC=0x58f0 (_1.ptx:4753) @!%p10 bra BB14_197;
GPGPU-Sim PTX:    immediate post dominator      @  PC=0x5bb8 (_1.ptx:4904) mul.f64 %fd138, %fd122, 0d3FBEB851EB851EB8;
GPGPU-Sim PTX: 151 (potential) branch divergence @  PC=0x5908 (_1.ptx:4757) @%p169 bra BB14_191;
GPGPU-Sim PTX:    immediate post dominator      @  PC=0x5bb8 (_1.ptx:4904) mul.f64 %fd138, %fd122, 0d3FBEB851EB851EB8;
GPGPU-Sim PTX: 152 (potential) branch divergence @  PC=0x5910 (_1.ptx:4758) bra.uni BB14_197;
GPGPU-Sim PTX:    immediate post dominator      @  PC=0x5bb8 (_1.ptx:4904) mul.f64 %fd138, %fd122, 0d3FBEB851EB851EB8;
GPGPU-Sim PTX: 153 (potential) branch divergence @  PC=0x5998 (_1.ptx:4788) @%p172 bra BB14_193;
GPGPU-Sim PTX:    immediate post dominator      @  PC=0x5b60 (_1.ptx:4883) add.f64 %fd1200, %fd1941, 0dBFF0000000000000;
GPGPU-Sim PTX: 154 (potential) branch divergence @  PC=0x59d0 (_1.ptx:4799) bra.uni BB14_196;
GPGPU-Sim PTX:    immediate post dominator      @  PC=0x5b60 (_1.ptx:4883) add.f64 %fd1200, %fd1941, 0dBFF0000000000000;
GPGPU-Sim PTX: 155 (potential) branch divergence @  PC=0x5ad8 (_1.ptx:4853) @%p175 bra BB14_195;
GPGPU-Sim PTX:    immediate post dominator      @  PC=0x5b60 (_1.ptx:4883) add.f64 %fd1200, %fd1941, 0dBFF0000000000000;
GPGPU-Sim PTX: 156 (potential) branch divergence @  PC=0x5b40 (_1.ptx:4873) bra.uni BB14_196;
GPGPU-Sim PTX:    immediate post dominator      @  PC=0x5b60 (_1.ptx:4883) add.f64 %fd1200, %fd1941, 0dBFF0000000000000;
GPGPU-Sim PTX: 157 (potential) branch divergence @  PC=0x5be0 (_1.ptx:4915) @%p179 bra BB14_199;
GPGPU-Sim PTX:    immediate post dominator      @  PC=0x5da8 (_1.ptx:5010) mov.f64 %fd1240, 0d40E86A0000000000;
GPGPU-Sim PTX: 158 (potential) branch divergence @  PC=0x5c18 (_1.ptx:4926) bra.uni BB14_202;
GPGPU-Sim PTX:    immediate post dominator      @  PC=0x5da8 (_1.ptx:5010) mov.f64 %fd1240, 0d40E86A0000000000;
GPGPU-Sim PTX: 159 (potential) branch divergence @  PC=0x5d20 (_1.ptx:4980) @%p182 bra BB14_201;
GPGPU-Sim PTX:    immediate post dominator      @  PC=0x5da8 (_1.ptx:5010) mov.f64 %fd1240, 0d40E86A0000000000;
GPGPU-Sim PTX: 160 (potential) branch divergence @  PC=0x5d88 (_1.ptx:5000) bra.uni BB14_202;
GPGPU-Sim PTX:    immediate post dominator      @  PC=0x5da8 (_1.ptx:5010) mov.f64 %fd1240, 0d40E86A0000000000;
GPGPU-Sim PTX: 161 (potential) branch divergence @  PC=0x5e38 (_1.ptx:5034) @%p184 bra BB14_204;
GPGPU-Sim PTX:    immediate post dominator      @  PC=0x6128 (_1.ptx:5193) mov.f32 %f113, %f703;
GPGPU-Sim PTX: 162 (potential) branch divergence @  PC=0x5e88 (_1.ptx:5051) bra.uni BB14_210;
GPGPU-Sim PTX:    immediate post dominator      @  PC=0x6128 (_1.ptx:5193) mov.f32 %f113, %f703;
GPGPU-Sim PTX: 163 (potential) branch divergence @  PC=0x5f20 (_1.ptx:5085) @%p187 bra BB14_206;
GPGPU-Sim PTX:    immediate post dominator      @  PC=0x60e8 (_1.ptx:5181) cvt.rn.ftz.f32.f64 %f702, %fd1943;
GPGPU-Sim PTX: 164 (potential) branch divergence @  PC=0x5f58 (_1.ptx:5096) bra.uni BB14_209;
GPGPU-Sim PTX:    immediate post dominator      @  PC=0x60e8 (_1.ptx:5181) cvt.rn.ftz.f32.f64 %f702, %fd1943;
GPGPU-Sim PTX: 165 (potential) branch divergence @  PC=0x6060 (_1.ptx:5150) @%p190 bra BB14_208;
GPGPU-Sim PTX:    immediate post dominator      @  PC=0x60e8 (_1.ptx:5181) cvt.rn.ftz.f32.f64 %f702, %fd1943;
GPGPU-Sim PTX: 166 (potential) branch divergence @  PC=0x60c8 (_1.ptx:5170) bra.uni BB14_209;
GPGPU-Sim PTX:    immediate post dominator      @  PC=0x60e8 (_1.ptx:5181) cvt.rn.ftz.f32.f64 %f702, %fd1943;
GPGPU-Sim PTX: 167 (potential) branch divergence @  PC=0x61a8 (_1.ptx:5211) @%p192 bra BB14_212;
GPGPU-Sim PTX:    immediate post dominator      @  PC=0x64d8 (_1.ptx:5379) mov.f32 %f125, %f707;
GPGPU-Sim PTX: 168 (potential) branch divergence @  PC=0x6218 (_1.ptx:5232) bra.uni BB14_218;
GPGPU-Sim PTX:    immediate post dominator      @  PC=0x64d8 (_1.ptx:5379) mov.f32 %f125, %f707;
GPGPU-Sim PTX: 169 (potential) branch divergence @  PC=0x62b8 (_1.ptx:5267) @%p195 bra BB14_214;
GPGPU-Sim PTX:    immediate post dominator      @  PC=0x6480 (_1.ptx:5363) cvt.rn.ftz.f32.f64 %f706, %fd1944;
GPGPU-Sim PTX: 170 (potential) branch divergence @  PC=0x62f0 (_1.ptx:5278) bra.uni BB14_217;
GPGPU-Sim PTX:    immediate post dominator      @  PC=0x6480 (_1.ptx:5363) cvt.rn.ftz.f32.f64 %f706, %fd1944;
GPGPU-Sim PTX: 171 (potential) branch divergence @  PC=0x63f8 (_1.ptx:5332) @%p198 bra BB14_216;
GPGPU-Sim PTX:    immediate post dominator      @  PC=0x6480 (_1.ptx:5363) cvt.rn.ftz.f32.f64 %f706, %fd1944;
GPGPU-Sim PTX: 172 (potential) branch divergence @  PC=0x6460 (_1.ptx:5352) bra.uni BB14_217;
GPGPU-Sim PTX:    immediate post dominator      @  PC=0x6480 (_1.ptx:5363) cvt.rn.ftz.f32.f64 %f706, %fd1944;
GPGPU-Sim PTX: 173 (potential) branch divergence @  PC=0x65c0 (_1.ptx:5426) @%p11 bra BB14_220;
GPGPU-Sim PTX:    immediate post dominator      @  PC=0x6788 (_1.ptx:5521) ld.param.u64 %rl389, [_Z8wsm5_gpuPfS_S_S_S_S_S_S_S_S_S_S_S_S_S_fS_iiiiiiiiiiiiiiiiii_param_8];
GPGPU-Sim PTX: 174 (potential) branch divergence @  PC=0x65f8 (_1.ptx:5437) bra.uni BB14_223;
GPGPU-Sim PTX:    immediate post dominator      @  PC=0x6788 (_1.ptx:5521) ld.param.u64 %rl389, [_Z8wsm5_gpuPfS_S_S_S_S_S_S_S_S_S_S_S_S_S_fS_iiiiiiiiiiiiiiiiii_param_8];
GPGPU-Sim PTX: 175 (potential) branch divergence @  PC=0x6700 (_1.ptx:5491) @%p204 bra BB14_222;
GPGPU-Sim PTX:    immediate post dominator      @  PC=0x6788 (_1.ptx:5521) ld.param.u64 %rl389, [_Z8wsm5_gpuPfS_S_S_S_S_S_S_S_S_S_S_S_S_S_fS_iiiiiiiiiiiiiiiiii_param_8];
GPGPU-Sim PTX: 176 (potential) branch divergence @  PC=0x6768 (_1.ptx:5511) bra.uni BB14_223;
GPGPU-Sim PTX:    immediate post dominator      @  PC=0x6788 (_1.ptx:5521) ld.param.u64 %rl389, [_Z8wsm5_gpuPfS_S_S_S_S_S_S_S_S_S_S_S_S_S_fS_iiiiiiiiiiiiiiiiii_param_8];
GPGPU-Sim PTX: 177 (potential) branch divergence @  PC=0x6800 (_1.ptx:5543) @%p11 bra BB14_225;
GPGPU-Sim PTX:    immediate post dominator      @  PC=0x69c8 (_1.ptx:5639) mul.f64 %fd1418, %fd1946, 0d3F170D8DB22FBD88;
GPGPU-Sim PTX: 178 (potential) branch divergence @  PC=0x6838 (_1.ptx:5554) bra.uni BB14_228;
GPGPU-Sim PTX:    immediate post dominator      @  PC=0x69c8 (_1.ptx:5639) mul.f64 %fd1418, %fd1946, 0d3F170D8DB22FBD88;
GPGPU-Sim PTX: 179 (potential) branch divergence @  PC=0x6940 (_1.ptx:5608) @%p208 bra BB14_227;
GPGPU-Sim PTX:    immediate post dominator      @  PC=0x69c8 (_1.ptx:5639) mul.f64 %fd1418, %fd1946, 0d3F170D8DB22FBD88;
GPGPU-Sim PTX: 180 (potential) branch divergence @  PC=0x69a8 (_1.ptx:5628) bra.uni BB14_228;
GPGPU-Sim PTX:    immediate post dominator      @  PC=0x69c8 (_1.ptx:5639) mul.f64 %fd1418, %fd1946, 0d3F170D8DB22FBD88;
GPGPU-Sim PTX: 181 (potential) branch divergence @  PC=0x69f8 (_1.ptx:5648) @%p11 bra BB14_230;
GPGPU-Sim PTX:    immediate post dominator      @  PC=0x6bc0 (_1.ptx:5744) mul.f64 %fd1457, %fd1947, 0d3F170D8DB22FBD88;
GPGPU-Sim PTX: 182 (potential) branch divergence @  PC=0x6a30 (_1.ptx:5659) bra.uni BB14_233;
GPGPU-Sim PTX:    immediate post dominator      @  PC=0x6bc0 (_1.ptx:5744) mul.f64 %fd1457, %fd1947, 0d3F170D8DB22FBD88;
GPGPU-Sim PTX: 183 (potential) branch divergence @  PC=0x6b38 (_1.ptx:5713) @%p212 bra BB14_232;
GPGPU-Sim PTX:    immediate post dominator      @  PC=0x6bc0 (_1.ptx:5744) mul.f64 %fd1457, %fd1947, 0d3F170D8DB22FBD88;
GPGPU-Sim PTX: 184 (potential) branch divergence @  PC=0x6ba0 (_1.ptx:5733) bra.uni BB14_233;
GPGPU-Sim PTX:    immediate post dominator      @  PC=0x6bc0 (_1.ptx:5744) mul.f64 %fd1457, %fd1947, 0d3F170D8DB22FBD88;
GPGPU-Sim PTX: 185 (potential) branch divergence @  PC=0x6c00 (_1.ptx:5763) @%p216 bra BB14_241;
GPGPU-Sim PTX:    immediate post dominator      @  PC=0x6ea8 (_1.ptx:5936) mov.f64 %fd188, %fd1950;
GPGPU-Sim PTX: 186 (potential) branch divergence @  PC=0x6c18 (_1.ptx:5769) @%p217 bra BB14_240;
GPGPU-Sim PTX:    immediate post dominator      @  PC=0x6ea8 (_1.ptx:5936) mov.f64 %fd188, %fd1950;
GPGPU-Sim PTX: 187 (potential) branch divergence @  PC=0x6c28 (_1.ptx:5773) @%p218 bra BB14_239;
GPGPU-Sim PTX:    immediate post dominator      @  PC=0x6ea8 (_1.ptx:5936) mov.f64 %fd188, %fd1950;
GPGPU-Sim PTX: 188 (potential) branch divergence @  PC=0x6c38 (_1.ptx:5777) @%p219 bra BB14_238;
GPGPU-Sim PTX:    immediate post dominator      @  PC=0x6ea8 (_1.ptx:5936) mov.f64 %fd188, %fd1950;
GPGPU-Sim PTX: 189 (potential) branch divergence @  PC=0x6c48 (_1.ptx:5780) bra.uni BB14_247;
GPGPU-Sim PTX:    immediate post dominator      @  PC=0x6ea8 (_1.ptx:5936) mov.f64 %fd188, %fd1950;
GPGPU-Sim PTX: 190 (potential) branch divergence @  PC=0x6c58 (_1.ptx:5784) bra.uni BB14_247;
GPGPU-Sim PTX:    immediate post dominator      @  PC=0x6ea8 (_1.ptx:5936) mov.f64 %fd188, %fd1950;
GPGPU-Sim PTX: 191 (potential) branch divergence @  PC=0x6c70 (_1.ptx:5790) bra.uni BB14_247;
GPGPU-Sim PTX:    immediate post dominator      @  PC=0x6ea8 (_1.ptx:5936) mov.f64 %fd188, %fd1950;
GPGPU-Sim PTX: 192 (potential) branch divergence @  PC=0x6c88 (_1.ptx:5796) bra.uni BB14_247;
GPGPU-Sim PTX:    immediate post dominator      @  PC=0x6ea8 (_1.ptx:5936) mov.f64 %fd188, %fd1950;
GPGPU-Sim PTX: 193 (potential) branch divergence @  PC=0x6c98 (_1.ptx:5801) @%p220 bra BB14_243;
GPGPU-Sim PTX:    immediate post dominator      @  PC=0x6cd0 (_1.ptx:5823) shr.s32 %r893, %r1148, 20;
GPGPU-Sim PTX: 194 (potential) branch divergence @  PC=0x6ca8 (_1.ptx:5804) bra.uni BB14_244;
GPGPU-Sim PTX:    immediate post dominator      @  PC=0x6cd0 (_1.ptx:5823) shr.s32 %r893, %r1148, 20;
GPGPU-Sim PTX: 195 (potential) branch divergence @  PC=0x6d00 (_1.ptx:5832) @%p221 bra BB14_245;
GPGPU-Sim PTX:    immediate post dominator      @  PC=0x6d38 (_1.ptx:5854) add.f64 %fd1461, %fd1948, 0d3FF0000000000000;
GPGPU-Sim PTX: 196 (potential) branch divergence @  PC=0x6d08 (_1.ptx:5833) bra.uni BB14_246;
GPGPU-Sim PTX:    immediate post dominator      @  PC=0x6d38 (_1.ptx:5854) add.f64 %fd1461, %fd1948, 0d3FF0000000000000;
GPGPU-Sim PTX: 197 (potential) branch divergence @  PC=0x6ed8 (_1.ptx:5949) @%p224 bra BB14_249;
GPGPU-Sim PTX:    immediate post dominator      @  PC=0x70a0 (_1.ptx:6045) ld.global.f32 %f129, [%rl411];
GPGPU-Sim PTX: 198 (potential) branch divergence @  PC=0x6f10 (_1.ptx:5960) bra.uni BB14_252;
GPGPU-Sim PTX:    immediate post dominator      @  PC=0x70a0 (_1.ptx:6045) ld.global.f32 %f129, [%rl411];
GPGPU-Sim PTX: 199 (potential) branch divergence @  PC=0x7018 (_1.ptx:6014) @%p227 bra BB14_251;
GPGPU-Sim PTX:    immediate post dominator      @  PC=0x70a0 (_1.ptx:6045) ld.global.f32 %f129, [%rl411];
GPGPU-Sim PTX: 200 (potential) branch divergence @  PC=0x7080 (_1.ptx:6034) bra.uni BB14_252;
GPGPU-Sim PTX:    immediate post dominator      @  PC=0x70a0 (_1.ptx:6045) ld.global.f32 %f129, [%rl411];
GPGPU-Sim PTX: 201 (potential) branch divergence @  PC=0x7130 (_1.ptx:6074) @%p229 bra BB14_254;
GPGPU-Sim PTX:    immediate post dominator      @  PC=0x7370 (_1.ptx:6202) setp.gt.f64 %p237, %fd1244, 0d3E112E0BE826D695;
GPGPU-Sim PTX: 202 (potential) branch divergence @  PC=0x7140 (_1.ptx:6077) bra.uni BB14_260;
GPGPU-Sim PTX:    immediate post dominator      @  PC=0x7370 (_1.ptx:6202) setp.gt.f64 %p237, %fd1244, 0d3E112E0BE826D695;
GPGPU-Sim PTX: 203 (potential) branch divergence @  PC=0x7188 (_1.ptx:6097) @%p232 bra BB14_256;
GPGPU-Sim PTX:    immediate post dominator      @  PC=0x7350 (_1.ptx:6193) mul.f64 %fd1583, %fd45, %fd1953;
GPGPU-Sim PTX: 204 (potential) branch divergence @  PC=0x71c0 (_1.ptx:6108) bra.uni BB14_259;
GPGPU-Sim PTX:    immediate post dominator      @  PC=0x7350 (_1.ptx:6193) mul.f64 %fd1583, %fd45, %fd1953;
GPGPU-Sim PTX: 205 (potential) branch divergence @  PC=0x72c8 (_1.ptx:6162) @%p235 bra BB14_258;
GPGPU-Sim PTX:    immediate post dominator      @  PC=0x7350 (_1.ptx:6193) mul.f64 %fd1583, %fd45, %fd1953;
GPGPU-Sim PTX: 206 (potential) branch divergence @  PC=0x7330 (_1.ptx:6182) bra.uni BB14_259;
GPGPU-Sim PTX:    immediate post dominator      @  PC=0x7350 (_1.ptx:6193) mul.f64 %fd1583, %fd45, %fd1953;
GPGPU-Sim PTX: 207 (potential) branch divergence @  PC=0x73a0 (_1.ptx:6209) @%p239 bra BB14_262;
GPGPU-Sim PTX:    immediate post dominator      @  PC=0x7418 (_1.ptx:6235) setp.gt.f64 %p240, %fd1244, 0d0000000000000000;
GPGPU-Sim PTX: 208 (potential) branch divergence @  PC=0x73b0 (_1.ptx:6212) bra.uni BB14_263;
GPGPU-Sim PTX:    immediate post dominator      @  PC=0x7418 (_1.ptx:6235) setp.gt.f64 %p240, %fd1244, 0d0000000000000000;
GPGPU-Sim PTX: 209 (potential) branch divergence @  PC=0x7438 (_1.ptx:6240) @%p240 bra BB14_265;
GPGPU-Sim PTX:    immediate post dominator      @  PC=0x7538 (_1.ptx:6296) sub.f64 %fd1607, %fd196, %fd170;
GPGPU-Sim PTX: 210 (potential) branch divergence @  PC=0x7448 (_1.ptx:6243) bra.uni BB14_268;
GPGPU-Sim PTX:    immediate post dominator      @  PC=0x7538 (_1.ptx:6296) sub.f64 %fd1607, %fd196, %fd170;
GPGPU-Sim PTX: 211 (potential) branch divergence @  PC=0x74e0 (_1.ptx:6272) @%p241 bra BB14_267;
GPGPU-Sim PTX:    immediate post dominator      @  PC=0x7538 (_1.ptx:6296) sub.f64 %fd1607, %fd196, %fd170;
GPGPU-Sim PTX: 212 (potential) branch divergence @  PC=0x7500 (_1.ptx:6279) bra.uni BB14_268;
GPGPU-Sim PTX:    immediate post dominator      @  PC=0x7538 (_1.ptx:6296) sub.f64 %fd1607, %fd196, %fd170;
GPGPU-Sim PTX: 213 (potential) branch divergence @  PC=0x7608 (_1.ptx:6340) @%p244 bra BB14_270;
GPGPU-Sim PTX:    immediate post dominator      @  PC=0x77d0 (_1.ptx:6436) cvt.rn.ftz.f32.f64 %f143, %fd1954;
GPGPU-Sim PTX: 214 (potential) branch divergence @  PC=0x7640 (_1.ptx:6351) bra.uni BB14_273;
GPGPU-Sim PTX:    immediate post dominator      @  PC=0x77d0 (_1.ptx:6436) cvt.rn.ftz.f32.f64 %f143, %fd1954;
GPGPU-Sim PTX: 215 (potential) branch divergence @  PC=0x7748 (_1.ptx:6405) @%p247 bra BB14_272;
GPGPU-Sim PTX:    immediate post dominator      @  PC=0x77d0 (_1.ptx:6436) cvt.rn.ftz.f32.f64 %f143, %fd1954;
GPGPU-Sim PTX: 216 (potential) branch divergence @  PC=0x77b0 (_1.ptx:6425) bra.uni BB14_273;
GPGPU-Sim PTX:    immediate post dominator      @  PC=0x77d0 (_1.ptx:6436) cvt.rn.ftz.f32.f64 %f143, %fd1954;
GPGPU-Sim PTX: 217 (potential) branch divergence @  PC=0x77e8 (_1.ptx:6441) @%p250 bra BB14_275;
GPGPU-Sim PTX:    immediate post dominator      @  PC=0x7870 (_1.ptx:6467) setp.gt.ftz.f32 %p251, %f76, 0f00000000;
GPGPU-Sim PTX: 218 (potential) branch divergence @  PC=0x77f8 (_1.ptx:6444) bra.uni BB14_276;
GPGPU-Sim PTX:    immediate post dominator      @  PC=0x7870 (_1.ptx:6467) setp.gt.ftz.f32 %p251, %f76, 0f00000000;
GPGPU-Sim PTX: 219 (potential) branch divergence @  PC=0x7878 (_1.ptx:6468) @%p251 bra BB14_278;
GPGPU-Sim PTX:    immediate post dominator      @  PC=0x8270 (_1.ptx:7002) @%p9 bra BB14_311;
GPGPU-Sim PTX: 220 (potential) branch divergence @  PC=0x78a8 (_1.ptx:6475) bra.uni BB14_309;
GPGPU-Sim PTX:    immediate post dominator      @  PC=0x8270 (_1.ptx:7002) @%p9 bra BB14_311;
GPGPU-Sim PTX: 221 (potential) branch divergence @  PC=0x78c0 (_1.ptx:6482) @%p253 bra BB14_280;
GPGPU-Sim PTX:    immediate post dominator      @  PC=0x7a28 (_1.ptx:6546) add.u64 %rl350, %SP, 336;
GPGPU-Sim PTX: 222 (potential) branch divergence @  PC=0x78d0 (_1.ptx:6485) bra.uni BB14_281;
GPGPU-Sim PTX:    immediate post dominator      @  PC=0x7a28 (_1.ptx:6546) add.u64 %rl350, %SP, 336;
GPGPU-Sim PTX: 223 (potential) branch divergence @  PC=0x7a48 (_1.ptx:6551) @%p254 bra BB14_283;
GPGPU-Sim PTX:    immediate post dominator      @  PC=0x7bb0 (_1.ptx:6630) mov.u32 %r1152, %r1154;
GPGPU-Sim PTX: 224 (potential) branch divergence @  PC=0x7a60 (_1.ptx:6555) bra.uni BB14_287;
GPGPU-Sim PTX:    immediate post dominator      @  PC=0x7bb0 (_1.ptx:6630) mov.u32 %r1152, %r1154;
GPGPU-Sim PTX: 225 (potential) branch divergence @  PC=0x7b18 (_1.ptx:6592) @%p255 bra BB14_285;
GPGPU-Sim PTX:    immediate post dominator      @  PC=0x7b80 (_1.ptx:6621) add.ftz.f32 %f543, %f715, %f711;
GPGPU-Sim PTX: 226 (potential) branch divergence @  PC=0x7b40 (_1.ptx:6602) bra.uni BB14_286;
GPGPU-Sim PTX:    immediate post dominator      @  PC=0x7b80 (_1.ptx:6621) add.ftz.f32 %f543, %f715, %f711;
GPGPU-Sim PTX: 227 (potential) branch divergence @  PC=0x7bd8 (_1.ptx:6637) @%p259 bra BB14_289;
GPGPU-Sim PTX:    immediate post dominator      @  PC=0x7d58 (_1.ptx:6719) setp.ne.s32 %p262, %r1153, 1;
GPGPU-Sim PTX: 228 (potential) branch divergence @  PC=0x7be8 (_1.ptx:6640) bra.uni BB14_293;
GPGPU-Sim PTX:    immediate post dominator      @  PC=0x7d58 (_1.ptx:6719) setp.ne.s32 %p262, %r1153, 1;
GPGPU-Sim PTX: 229 (potential) branch divergence @  PC=0x7ca0 (_1.ptx:6674) @%p260 bra BB14_291;
GPGPU-Sim PTX:    immediate post dominator      @  PC=0x7d20 (_1.ptx:6706) add.ftz.f32 %f555, %f715, %f711;
[...]
mf_lat_table:0 	0 	0 	0 	0 	0 	0 	624166 	1322652 	41159 	13 	0 	0 	0 	0 	0 	0 	0 	0 	0 	0 	0 	0 	0 	0 	0 	0 	0 	0 	0 	0 	0 	
icnt2mem_lat_table:0 	0 	0 	1711626 	524357 	241741 	89063 	44937 	27160 	515 	0 	0 	0 	0 	0 	0 	0 	0 	0 	0 	0 	0 	0 	0 	
icnt2sh_lat_table:0 	0 	0 	402312 	570269 	298224 	36751 	218 	0 	0 	0 	0 	117 	973 	2115 	19557 	25905 	27549 	83789 	81310 	141795 	278018 	19088 	0 	
mf_lat_pw_table:0 	0 	0 	0 	0 	0 	0 	3971 	5668 	1 	0 	0 	0 	0 	0 	0 	0 	0 	0 	0 	0 	0 	0 	0 	0 	0 	0 	0 	0 	0 	0 	0 	
maximum concurrent accesses to same row:
dram[0]:        30        20        36        42        34        32        36        32        32        24        48        50        30        32        28        32 
dram[1]:        24        26        24        16        40        46        24        30        36        36        40        36        30        40        32        26 
dram[2]:        44        34        22        20        48        48        28        24        44        50        22        26        42        46        28        26 
dram[3]:        38        32        30        26        34        32        28        26        54        56        24        36        48        54        26        24 
dram[4]:        22        20        22        22        18        24        38        42        42        46        26        30        28        44        40        20 
dram[5]:        22        20        32        44        20        22        46        42        24        28        48        46        28        24        40        30 
maximum service time to same row:
dram[0]:    102468     61211     74841     74834     76963     85647     44421     53913     37814     42323     70959     51025     43904     34763     69129     69125 
dram[1]:     81528     39640     28829     62644     47334     43003     50950     41702     49185     44413     62775     44686     25218     36849     52542     39324 
dram[2]:     98747     82073    158550    118317     86116     79306     44219     75803     49650     50771     84678     66794     44923     85125     60445     60480 
dram[3]:     79715     43011     41834     65870     87812     49409     55288     52164     53969     50795     62853     67156     45811     74497    110810     59263 
dram[4]:     58525     51308     42356     75778     63617     42132     37961     55244     38064     41481     44371     39472     66003     55021     28066     38132 
dram[5]:     77773     86594     62591     73772     63967     63934     74518     65000     63978     62939    105712     67196     48896     62371     89913     54268 
average row accesses per activate:
dram[0]:  1.743171  1.727196  1.682971  1.690038  1.691354  1.698616  1.715682  1.708784  1.761239  1.734954  1.722988  1.711671  1.734071  1.738176  1.748038  1.723132 
dram[1]:  1.750408  1.732423  1.697679  1.708980  1.695708  1.698214  1.719267  1.716889  1.757517  1.751314  1.720578  1.722955  1.747877  1.752014  1.745620  1.744380 
dram[2]:  1.748589  1.727434  1.685217  1.700600  1.688770  1.694928  1.723423  1.702487  1.752440  1.747626  1.714142  1.726337  1.749420  1.748740  1.730022  1.727893 
dram[3]:  1.738498  1.741095  1.691970  1.703304  1.689756  1.691194  1.718881  1.703300  1.732633  1.732703  1.718699  1.722960  1.748121  1.746167  1.730629  1.724171 
dram[4]:  1.744304  1.744774  1.699816  1.697553  1.691615  1.689327  1.725266  1.712172  1.742605  1.730713  1.730315  1.729286  1.740033  1.747011  1.733895  1.736336 
dram[5]:  1.715033  1.729313  1.686189  1.700037  1.689479  1.707150  1.718366  1.710581  1.731394  1.745530  1.723404  1.723278  1.722811  1.736861  1.739961  1.727448 
average row locality = 1801729/1046021 = 1.722460
number of total memory accesses made:
dram[0]:         0         0         0         0         0         0         0         0         0         0         0         0         0         0         0         0 
dram[1]:         0         0         0         0         0         0         0         0         0         0         0         0         0         0         0         0 
dram[2]:         0         0         0         0         0         0         0         0         0         0         0         0         0         0         0         0 
dram[3]:         0         0         0         0         0         0         0         0         0         0         0         0         0         0         0         0 
dram[4]:         0         0         0         0         0         0         0         0         0         0         0         0         0         0         0         0 
dram[5]:         0         0         0         0         0         0         0         0         0         0         0         0         0         0         0         0 
total accesses: 0
min_bank_accesses = 0!
min_chip_accesses = 0!
number of total read accesses:
dram[0]:     12361     12526     12543     12536     13258     13128     12306     12269     12595     12652     12447     12380     12480     12634     12151     12184 
dram[1]:     12478     12690     12808     12771     13291     13375     12491     12396     12544     12681     12546     12522     12666     12771     12291     12265 
dram[2]:     12490     12674     12879     12739     13290     13231     12456     12459     12699     12646     12544     12612     12642     12808     12396     12309 
dram[3]:     12579     12611     12614     12576     13192     13100     12352     12407     12643     12629     12637     12644     12655     12684     12372     12249 
dram[4]:     12728     12550     12542     12584     13162     13265     12404     12325     12644     12753     12638     12607     12672     12603     12191     12172 
dram[5]:     12568     12507     12677     12642     13135     13253     12351     12353     12722     12600     12440     12562     12649     12645     12310     12228 
total reads: 1211336
bank skew: 13375/12151 = 1.10
chip skew: 202874/200450 = 1.01
number of total write accesses:
dram[0]:      5700      5784      5899      5904      6382      6384      6479      6543      6289      6259      6306      6320      6163      6220      5665      5709 
dram[1]:      5749      5840      5914      5956      6386      6399      6641      6634      6337      6305      6401      6415      6267      6368      5743      5737 
dram[2]:      5788      5794      5987      5954      6320      6420      6593      6568      6336      6307      6255      6338      6215      6269      5681      5668 
dram[3]:      5823      5768      5908      5881      6372      6413      6566      6486      6312      6254      6279      6312      6188      6220      5720      5691 
dram[4]:      5800      5812      5901      5938      6366      6441      6586      6538      6326      6316      6283      6365      6270      6249      5708      5714 
dram[5]:      5788      5758      5893      5919      6343      6398      6539      6513      6261      6243      6271      6301      6202      6193      5716      5658 
total reads: 590393
bank skew: 6641/5658 = 1.17
chip skew: 99092/97996 = 1.01
average mf latency per bank:
dram[0]:        298       299       305       310       295       300       294       297       301       306       304       308       302       305       307       310
dram[1]:        303       303       309       311       298       299       297       300       304       306       307       308       305       306       307       311
dram[2]:        304       303       306       310       298       299       296       298       304       306       305       306       306       306       311       312
dram[3]:        301       303       308       309       300       300       298       299       304       305       308       308       306       306       312       311
dram[4]:        300       302       306       308       298       297       298       298       304       304       307       308       306       306       310       310
dram[5]:        299       300       307       307       298       296       298       298       305       305       308       308       308       307       311       312
maximum mf latency per bank:
dram[0]:        822       924       899       891       914       860       945       867       903       957       870       894       941       877       906       913
dram[1]:       1027       900       991       993      1009      1075       918       956       852       978       969       905       922       912       999       942
dram[2]:        945       817       875       936      1032       849       979       893       939       848       963       916       992       868       892       861
dram[3]:        911       979      1020      1037       939       896       905       879       937       905      1070       960       999       789       911       931
dram[4]:        898       915       838       877       932       814       836       886       842       839       863       894       862       996       904       990
dram[5]:       1020       930      1007       983       874       936       960       966       937       951      1148      1051      1090      1037       999      1001

Number of Memory Banks Accessed per Memory Operation per Warp (from 0):
0	0	0	0	0	0	0	0	0	0	0	0	0	0	0	0	0	0	0	0	0	0	0	0	0	0	0	0	0	0	0	0	0	0	0	0	0	0	0	0	0	0	0	0	0	0	0	0	0	0	0	0	0	0	0	0	0	0	0	0	0	0	0	0	0	0	0	0	0	0	0	0	0	0	0	0	0	0	0	0	0	0	0	0	0	0	0	0	0	0	0	0	0	0	0	0	
Average # of Memory Banks Accessed per Memory Operation per Warp=-nan

position of mrq chosen
0	0	0	0	0	0	0	0	0	0	0	0	0	0	0	0	

average position of mrq chosen = -nan
Memory Partition 0: 
Cache L2_bank_000:
MSHR contents

Cache L2_bank_001:
MSHR contents

In Dram Latency Queue (total = 0): 
DRAM[0]: 16 bks, busW=4 BL=8 CL=12, tRRD=2 tCCD=6, tRCD=12 tRAS=28 tRP=12 tRC=40
n_cmd=6519878 n_nop=5596579 n_act=173509 n_pre=173493 n_req=298456 n_rd=400900 n_write=175397 bw_util=0.1768
n_activity=3589031 dram_eff=0.3211
bk0: 24722a 5995019i bk1: 25052a 5972516i bk2: 25086a 5971376i bk3: 25072a 5954020i bk4: 26516a 5937187i bk5: 26256a 5929467i bk6: 24612a 5949192i bk7: 24538a 5934709i bk8: 25190a 5967851i bk9: 25304a 5948893i bk10: 24894a 5955440i bk11: 24760a 5943228i bk12: 24960a 5966646i bk13: 25268a 5949399i bk14: 24302a 5986418i bk15: 24368a 5973360i 
dram_util_bins: 0 0 0 0 0 0 0 0 0 0
dram_eff_bins: 0 0 0 0 0 0 0 0 0 0
mrqq: max=16 avg=0.876998
Memory Partition 1: 
Cache L2_bank_002:
MSHR contents

Cache L2_bank_003:
MSHR contents

In Dram Latency Queue (total = 0): 
DRAM[1]: 16 bks, busW=4 BL=8 CL=12, tRRD=2 tCCD=6, tRCD=12 tRAS=28 tRP=12 tRC=40
n_cmd=6519878 n_nop=5588363 n_act=174563 n_pre=174547 n_req=301678 n_rd=405172 n_write=177233 bw_util=0.1787
n_activity=3646291 dram_eff=0.3195
bk0: 24956a 5995135i bk1: 25380a 5968532i bk2: 25616a 5961447i bk3: 25542a 5946137i bk4: 26582a 5939378i bk5: 26750a 5923036i bk6: 24982a 5942228i bk7: 24792a 5931893i bk8: 25088a 5967289i bk9: 25362a 5948174i bk10: 25092a 5945243i bk11: 25044a 5934021i bk12: 25332a 5965356i bk13: 25542a 5941402i bk14: 24582a 5982126i bk15: 24530a 5971056i 
dram_util_bins: 0 0 0 0 0 0 0 0 0 0
dram_eff_bins: 0 0 0 0 0 0 0 0 0 0
mrqq: max=16 avg=0.887195
Memory Partition 2: 
Cache L2_bank_004:
MSHR contents

Cache L2_bank_005:
MSHR contents

In Dram Latency Queue (total = 0): 
DRAM[2]: 16 bks, busW=4 BL=8 CL=12, tRRD=2 tCCD=6, tRCD=12 tRAS=28 tRP=12 tRC=40
n_cmd=6519878 n_nop=5588195 n_act=174969 n_pre=174953 n_req=301367 n_rd=405748 n_write=176013 bw_util=0.1785
n_activity=3634675 dram_eff=0.3201
bk0: 24980a 5989561i bk1: 25348a 5967814i bk2: 25758a 5958367i bk3: 25478a 5949948i bk4: 26580a 5939102i bk5: 26462a 5926742i bk6: 24912a 5945061i bk7: 24918a 5930618i bk8: 25398a 5961335i bk9: 25292a 5950391i bk10: 25088a 5954892i bk11: 25224a 5938377i bk12: 25284a 5967492i bk13: 25616a 5947050i bk14: 24792a 5983655i bk15: 24618a 5972118i 
dram_util_bins: 0 0 0 0 0 0 0 0 0 0
dram_eff_bins: 0 0 0 0 0 0 0 0 0 0
mrqq: max=16 avg=0.871429
Memory Partition 3: 
Cache L2_bank_006:
MSHR contents

Cache L2_bank_007:
MSHR contents

In Dram Latency Queue (total = 0): 
DRAM[3]: 16 bks, busW=4 BL=8 CL=12, tRRD=2 tCCD=6, tRCD=12 tRAS=28 tRP=12 tRC=40
n_cmd=6519878 n_nop=5591464 n_act=174452 n_pre=174436 n_req=300137 n_rd=403888 n_write=175638 bw_util=0.1778
n_activity=3596643 dram_eff=0.3223
bk0: 25158a 5983738i bk1: 25222a 5970782i bk2: 25228a 5965633i bk3: 25152a 5956714i bk4: 26384a 5941048i bk5: 26200a 5928778i bk6: 24704a 5946054i bk7: 24814a 5929453i bk8: 25286a 5960419i bk9: 25258a 5947393i bk10: 25274a 5950425i bk11: 25288a 5934578i bk12: 25310a 5964583i bk13: 25368a 5946596i bk14: 24744a 5977829i bk15: 24498a 5968451i 
dram_util_bins: 0 0 0 0 0 0 0 0 0 0
dram_eff_bins: 0 0 0 0 0 0 0 0 0 0
mrqq: max=16 avg=0.873767
Memory Partition 4: 
Cache L2_bank_008:
MSHR contents
MSHR: tag=0xc0063400, atomic=0 1 entries : 0x7f05434a2570 :  mf: uid=41347751, sid03:w09, part=4, addr=0xc0063460, load , size=32, unknown  status = IN_PARTITION_DRAM (4939299), 

Cache L2_bank_009:
MSHR contents

In Dram Latency Queue (total = 0): 
DRAM[4]: 16 bks, busW=4 BL=8 CL=12, tRRD=2 tCCD=6, tRCD=12 tRAS=28 tRP=12 tRC=40
n_cmd=6519878 n_nop=5591378 n_act=174252 n_pre=174236 n_req=300453 n_rd=403680 n_write=176332 bw_util=0.1779
n_activity=3649363 dram_eff=0.3179
bk0: 25456a 5984947i bk1: 25100a 5975688i bk2: 25084a 5970119i bk3: 25168a 5953688i bk4: 26324a 5944351i bk5: 26530a 5925578i bk6: 24808a 5947650i bk7: 24650a 5932607i bk8: 25288a 5965461i bk9: 25506a 5941694i bk10: 25276a 5952170i bk11: 25214a 5935970i bk12: 25344a 5961036i bk13: 25206a 5952562i bk14: 24382a 5987578i bk15: 24344a 5975335i 
dram_util_bins: 0 0 0 0 0 0 0 0 0 0
dram_eff_bins: 0 0 0 0 0 0 0 0 0 0
mrqq: max=16 avg=0.884399
Memory Partition 5: 
Cache L2_bank_010:
MSHR contents

Cache L2_bank_011:
MSHR contents

In Dram Latency Queue (total = 0): 
DRAM[5]: 16 bks, busW=4 BL=8 CL=12, tRRD=2 tCCD=6, tRCD=12 tRAS=28 tRP=12 tRC=40
n_cmd=6519878 n_nop=5592856 n_act=174331 n_pre=174315 n_req=299638 n_rd=403284 n_write=175092 bw_util=0.1774
n_activity=3627013 dram_eff=0.3189
bk0: 25136a 5984043i bk1: 25014a 5974029i bk2: 25354a 5967979i bk3: 25284a 5955986i bk4: 26270a 5944945i bk5: 26506a 5929786i bk6: 24702a 5950575i bk7: 24706a 5934937i bk8: 25444a 5963742i bk9: 25200a 5952362i bk10: 24880a 5961742i bk11: 25124a 5944032i bk12: 25298a 5964488i bk13: 25290a 5955407i bk14: 24620a 5984630i bk15: 24456a 5974612i 
dram_util_bins: 0 0 0 0 0 0 0 0 0 0
dram_eff_bins: 0 0 0 0 0 0 0 0 0 0
mrqq: max=16 avg=0.862868

========= L2 cache stats =========
L2_cache_bank[0]: Access = 221410, Miss = 100141, Miss_rate = 0.452, Pending_hits = 2386, Reservation_fails = 1024
L2_cache_bank[1]: Access = 211277, Miss = 100309, Miss_rate = 0.475, Pending_hits = 2486, Reservation_fails = 602
L2_cache_bank[2]: Access = 210270, Miss = 101115, Miss_rate = 0.481, Pending_hits = 2447, Reservation_fails = 495
L2_cache_bank[3]: Access = 234153, Miss = 101471, Miss_rate = 0.433, Pending_hits = 2557, Reservation_fails = 734
L2_cache_bank[4]: Access = 216466, Miss = 101396, Miss_rate = 0.468, Pending_hits = 2343, Reservation_fails = 1069
L2_cache_bank[5]: Access = 231015, Miss = 101478, Miss_rate = 0.439, Pending_hits = 2382, Reservation_fails = 1846
L2_cache_bank[6]: Access = 213326, Miss = 101044, Miss_rate = 0.474, Pending_hits = 2458, Reservation_fails = 615
L2_cache_bank[7]: Access = 216163, Miss = 100900, Miss_rate = 0.467, Pending_hits = 2497, Reservation_fails = 1063
L2_cache_bank[8]: Access = 217729, Miss = 100981, Miss_rate = 0.464, Pending_hits = 2569, Reservation_fails = 790
L2_cache_bank[9]: Access = 227278, Miss = 100859, Miss_rate = 0.444, Pending_hits = 2571, Reservation_fails = 717
L2_cache_bank[10]: Access = 220461, Miss = 100852, Miss_rate = 0.457, Pending_hits = 2368, Reservation_fails = 312
L2_cache_bank[11]: Access = 219851, Miss = 100790, Miss_rate = 0.458, Pending_hits = 2407, Reservation_fails = 563
L2_total_cache_accesses = 2639399
L2_total_cache_misses = 1211336
L2_total_cache_miss_rate = 0.4589
L2_total_cache_pending_hits = 29471
L2_total_cache_reservation_fails = 9830
L2_total_cache_breakdown:
	L2_cache_stats_breakdown[GLOBAL_ACC_R][HIT] = 431783
	L2_cache_stats_breakdown[GLOBAL_ACC_R][HIT_RESERVED] = 19167
	L2_cache_stats_breakdown[GLOBAL_ACC_R][MISS] = 705270
	L2_cache_stats_breakdown[GLOBAL_ACC_R][RESERVATION_FAIL] = 6741
	L2_cache_stats_breakdown[LOCAL_ACC_R][HIT] = 7856
	L2_cache_stats_breakdown[LOCAL_ACC_R][HIT_RESERVED] = 2484
	L2_cache_stats_breakdown[LOCAL_ACC_R][MISS] = 141154
	L2_cache_stats_breakdown[LOCAL_ACC_R][RESERVATION_FAIL] = 31
	L2_cache_stats_breakdown[CONST_ACC_R][HIT] = 50
	L2_cache_stats_breakdown[CONST_ACC_R][HIT_RESERVED] = 7
	L2_cache_stats_breakdown[CONST_ACC_R][MISS] = 3
	L2_cache_stats_breakdown[CONST_ACC_R][RESERVATION_FAIL] = 203
	L2_cache_stats_breakdown[GLOBAL_ACC_W][HIT] = 288124
	L2_cache_stats_breakdown[GLOBAL_ACC_W][HIT_RESERVED] = 286
	L2_cache_stats_breakdown[GLOBAL_ACC_W][MISS] = 124005
	L2_cache_stats_breakdown[GLOBAL_ACC_W][RESERVATION_FAIL] = 30
	L2_cache_stats_breakdown[LOCAL_ACC_W][HIT] = 24118
	L2_cache_stats_breakdown[LOCAL_ACC_W][HIT_RESERVED] = 7223
	L2_cache_stats_breakdown[LOCAL_ACC_W][MISS] = 236460
	L2_cache_stats_breakdown[LOCAL_ACC_W][RESERVATION_FAIL] = 681
	L2_cache_stats_breakdown[L1_WRBK_ACC][HIT] = 2351
	L2_cache_stats_breakdown[L1_WRBK_ACC][MISS] = 1405
	L2_cache_stats_breakdown[INST_ACC_R][HIT] = 644310
	L2_cache_stats_breakdown[INST_ACC_R][HIT_RESERVED] = 304
	L2_cache_stats_breakdown[INST_ACC_R][MISS] = 3039
	L2_cache_stats_breakdown[INST_ACC_R][RESERVATION_FAIL] = 2144
L2_cache_data_port_util = 0.094
L2_cache_fill_port_util = 0.082

icnt_total_pkts_mem_to_simt=10457231
icnt_total_pkts_simt_to_mem=4393038
LD_mem_lat_dist  0 0 0 0 0 0 0 0 0 0 0 0 0 0 0 0 0 0 0 0 0 0 0 0 0 0 0
ST_mem_lat_dist  0 0 0 0 0 0 0 0 0 0 0 0 0 0 0 0 0 0 0 0 0 0 0 0 0 0 0
----------------------------Interconnect-DETAILS--------------------------------
Class 0:
Packet latency average = -nan
	minimum = nan
	maximum = -nan
Network latency average = -nan
	minimum = nan
	maximum = -nan
Slowest packet = -1
Flit latency average = -nan
	minimum = nan
	maximum = -nan
Slowest flit = -1
Fragmentation average = -nan
	minimum = nan
	maximum = -nan
Injected packet rate average = -nan
	minimum = -nan (at node 0)
	maximum = -nan (at node 0)
Accepted packet rate average = -nan
	minimum = -nan (at node 0)
	maximum = -nan (at node 0)
Injected flit rate average = -nan
	minimum = -nan (at node 0)
	maximum = -nan (at node 0)
Accepted flit rate average= -nan
	minimum = -nan (at node 0)
	maximum = -nan (at node 0)
Injected packet length average = -nan
Accepted packet length average = -nan
Total in-flight flits = 0 (0 measured)
====== Overall Traffic Statistics ======
====== Traffic class 0 ======
Packet latency average = -nan (31 samples)
	minimum = nan (31 samples)
	maximum = -nan (31 samples)
Network latency average = -nan (31 samples)
	minimum = nan (31 samples)
	maximum = -nan (31 samples)
Flit latency average = -nan (31 samples)
	minimum = nan (31 samples)
	maximum = -nan (31 samples)
Fragmentation average = -nan (31 samples)
	minimum = nan (31 samples)
	maximum = -nan (31 samples)
Injected packet rate average = -nan (31 samples)
	minimum = -nan (31 samples)
	maximum = -nan (31 samples)
Accepted packet rate average = -nan (31 samples)
	minimum = -nan (31 samples)
	maximum = -nan (31 samples)
Injected flit rate average = -nan (31 samples)
	minimum = -nan (31 samples)
	maximum = -nan (31 samples)
Accepted flit rate average = -nan (31 samples)
	minimum = -nan (31 samples)
	maximum = -nan (31 samples)
Injected packet size average = -nan (31 samples)
Accepted packet size average = -nan (31 samples)
Hops average = -nan (31 samples)
----------------------------END-of-Interconnect-DETAILS-------------------------
 Step number? Path to File? 
 opening ./data/wsm5_in_010
