

        *** GPGPU-Sim Simulator Version 3.2.2  [build gpgpu-sim_git-commit-ddd8790408a74e19f7f394289980b70d79dab717_modified_0] ***


GPGPU-Sim PTX: simulation mode 0 (can change with PTX_SIM_MODE_FUNC environment variable:
               1=functional simulation only, 0=detailed performance simulator)
GPGPU-Sim: Configuration options:

-network_mode                           1 # Interconnection network mode
-inter_config_file   config_fermi_islip.icnt # Interconnection network config file
-gpgpu_ptx_use_cuobjdump                    1 # Use cuobjdump to extract ptx and sass from binaries
-gpgpu_experimental_lib_support                    0 # Try to extract code from cuda libraries [Broken because of unknown cudaGetExportTable]
-gpgpu_ptx_convert_to_ptxplus                    0 # Convert SASS (native ISA) to ptxplus and run ptxplus
-gpgpu_ptx_force_max_capability                   20 # Force maximum compute capability
-gpgpu_ptx_inst_debug_to_file                    0 # Dump executed instructions' debug information to file
-gpgpu_ptx_inst_debug_file       inst_debug.txt # Executed instructions' debug output file
-gpgpu_ptx_inst_debug_thread_uid                    1 # Thread UID for executed instructions' debug output
-gpgpu_simd_model                       1 # 1 = post-dominator
-gpgpu_shader_core_pipeline              1536:32 # shader core pipeline config, i.e., {<nthread>:<warpsize>}
-gpgpu_tex_cache:l1  4:128:24,L:R:m:N:L,F:128:4,128:2 # per-shader L1 texture cache  (READ-ONLY) config  {<nsets>:<bsize>:<assoc>,<rep>:<wr>:<alloc>:<wr_alloc>,<mshr>:<N>:<merge>,<mq>:<rf>}
-gpgpu_const_cache:l1 64:64:2,L:R:f:N:L,A:2:32,4 # per-shader L1 constant memory cache  (READ-ONLY) config  {<nsets>:<bsize>:<assoc>,<rep>:<wr>:<alloc>:<wr_alloc>,<mshr>:<N>:<merge>,<mq>} 
-gpgpu_cache:il1     4:128:4,L:R:f:N:L,A:2:32,4 # shader L1 instruction cache config  {<nsets>:<bsize>:<assoc>,<rep>:<wr>:<alloc>:<wr_alloc>,<mshr>:<N>:<merge>,<mq>} 
-gpgpu_cache:dl1     32:128:4,L:L:m:N:H,A:32:8,8 # per-shader L1 data cache config  {<nsets>:<bsize>:<assoc>,<rep>:<wr>:<alloc>:<wr_alloc>,<mshr>:<N>:<merge>,<mq> | none}
-gpgpu_cache:dl1PrefL1                 none # per-shader L1 data cache config  {<nsets>:<bsize>:<assoc>,<rep>:<wr>:<alloc>:<wr_alloc>,<mshr>:<N>:<merge>,<mq> | none}
-gpgpu_cache:dl1PreShared                 none # per-shader L1 data cache config  {<nsets>:<bsize>:<assoc>,<rep>:<wr>:<alloc>:<wr_alloc>,<mshr>:<N>:<merge>,<mq> | none}
-gmem_skip_L1D                          0 # global memory access skip L1D cache (implements -Xptxas -dlcm=cg, default=no skip)
-gpgpu_perfect_mem                      0 # enable perfect memory mode (no cache miss)
-n_regfile_gating_group                    4 # group of lanes that should be read/written together)
-gpgpu_clock_gated_reg_file                    0 # enable clock gated reg file for power calculations
-gpgpu_clock_gated_lanes                    0 # enable clock gated lanes for power calculations
-gpgpu_shader_registers                32768 # Number of registers per shader core. Limits number of concurrent CTAs. (default 8192)
-gpgpu_shader_cta                       8 # Maximum number of concurrent CTAs in shader (default 8)
-gpgpu_num_cta_barriers                   16 # Maximum number of named barriers per CTA (default 16)
-gpgpu_n_clusters                      15 # number of processing clusters
-gpgpu_n_cores_per_cluster                    1 # number of simd cores per cluster
-gpgpu_n_cluster_ejection_buffer_size                    8 # number of packets in ejection buffer
-gpgpu_n_ldst_response_buffer_size                    2 # number of response packets in ld/st unit ejection buffer
-gpgpu_shmem_size                   16384 # Size of shared memory per shader core (default 16kB)
-gpgpu_shmem_size                   49152 # Size of shared memory per shader core (default 16kB)
-gpgpu_shmem_size_PrefL1                16384 # Size of shared memory per shader core (default 16kB)
-gpgpu_shmem_size_PrefShared                16384 # Size of shared memory per shader core (default 16kB)
-gpgpu_shmem_num_banks                   32 # Number of banks in the shared memory in each shader core (default 16)
-gpgpu_shmem_limited_broadcast                    0 # Limit shared memory to do one broadcast per cycle (default on)
-gpgpu_shmem_warp_parts                    1 # Number of portions a warp is divided into for shared memory bank conflict check 
-gpgpu_warpdistro_shader                   -1 # Specify which shader core to collect the warp size distribution from
-gpgpu_warp_issue_shader                    0 # Specify which shader core to collect the warp issue distribution from
-gpgpu_local_mem_map                    1 # Mapping from local memory space address to simulated GPU physical address space (default = enabled)
-gpgpu_num_reg_banks                   16 # Number of register banks (default = 8)
-gpgpu_reg_bank_use_warp_id                    0 # Use warp ID in mapping registers to banks (default = off)
-gpgpu_operand_collector_num_units_sp                    6 # number of collector units (default = 4)
-gpgpu_operand_collector_num_units_sfu                    8 # number of collector units (default = 4)
-gpgpu_operand_collector_num_units_mem                    2 # number of collector units (default = 2)
-gpgpu_operand_collector_num_units_gen                    0 # number of collector units (default = 0)
-gpgpu_operand_collector_num_in_ports_sp                    2 # number of collector unit in ports (default = 1)
-gpgpu_operand_collector_num_in_ports_sfu                    1 # number of collector unit in ports (default = 1)
-gpgpu_operand_collector_num_in_ports_mem                    1 # number of collector unit in ports (default = 1)
-gpgpu_operand_collector_num_in_ports_gen                    0 # number of collector unit in ports (default = 0)
-gpgpu_operand_collector_num_out_ports_sp                    2 # number of collector unit in ports (default = 1)
-gpgpu_operand_collector_num_out_ports_sfu                    1 # number of collector unit in ports (default = 1)
-gpgpu_operand_collector_num_out_ports_mem                    1 # number of collector unit in ports (default = 1)
-gpgpu_operand_collector_num_out_ports_gen                    0 # number of collector unit in ports (default = 0)
-gpgpu_coalesce_arch                   13 # Coalescing arch (default = 13, anything else is off for now)
-gpgpu_num_sched_per_core                    2 # Number of warp schedulers per core
-gpgpu_max_insn_issue_per_warp                    1 # Max number of instructions that can be issued per warp in one cycle by scheduler
-gpgpu_simt_core_sim_order                    1 # Select the simulation order of cores in a cluster (0=Fix, 1=Round-Robin)
-gpgpu_pipeline_widths        2,1,1,2,1,1,2 # Pipeline widths ID_OC_SP,ID_OC_SFU,ID_OC_MEM,OC_EX_SP,OC_EX_SFU,OC_EX_MEM,EX_WB
-gpgpu_num_sp_units                     2 # Number of SP units (default=1)
-gpgpu_num_sfu_units                    1 # Number of SF units (default=1)
-gpgpu_num_mem_units                    1 # Number if ldst units (default=1) WARNING: not hooked up to anything
-gpgpu_scheduler                      gto # Scheduler configuration: < lrr | gto | two_level_active > If two_level_active:<num_active_warps>:<inner_prioritization>:<outer_prioritization>For complete list of prioritization values see shader.h enum scheduler_prioritization_typeDefault: gto
-gpgpu_concurrent_kernel_sm                    0 # Support concurrent kernels on a SM (default = disabled)
-gpgpu_rfc_slots                        3 # Shader Register File Cache per-warp register capacity (default=6)
-gpgpu_dram_scheduler                    1 # 0 = fifo, 1 = FR-FCFS (defaul)
-gpgpu_dram_partition_queues              8:8:8:8 # i2$:$2d:d2$:$2i
-l2_ideal                               0 # Use a ideal L2 cache that always hit
-gpgpu_cache:dl2     64:128:8,L:B:m:W:L,A:32:4,4:0,32 # unified banked L2 data cache config  {<nsets>:<bsize>:<assoc>,<rep>:<wr>:<alloc>:<wr_alloc>,<mshr>:<N>:<merge>,<mq>}
-gpgpu_cache:dl2_texture_only                    0 # L2 cache used for texture only
-gpgpu_n_mem                            6 # number of memory modules (e.g. memory controllers) in gpu
-gpgpu_n_sub_partition_per_mchannel                    2 # number of memory subpartition in each memory module
-gpgpu_n_mem_per_ctrlr                    2 # number of memory chips per memory controller
-gpgpu_memlatency_stat                   14 # track and display latency statistics 0x2 enables MC, 0x4 enables queue logs
-gpgpu_frfcfs_dram_sched_queue_size                   16 # 0 = unlimited (default); # entries per chip
-gpgpu_dram_return_queue_size                  116 # 0 = unlimited (default); # entries per chip
-gpgpu_dram_buswidth                    4 # default = 4 bytes (8 bytes per cycle at DDR)
-gpgpu_dram_burst_length                    8 # Burst length of each DRAM request (default = 4 data bus cycle)
-dram_data_command_freq_ratio                    4 # Frequency ratio between DRAM data bus and command bus (default = 2 times, i.e. DDR)
-gpgpu_dram_timing_opt nbk=16:CCD=2:RRD=6:RCD=12:RAS=28:RP=12:RC=40: CL=12:WL=4:CDLR=5:WR=12:nbkgrp=4:CCDL=3:RTPL=2 # DRAM timing parameters = {nbk:tCCD:tRRD:tRCD:tRAS:tRP:tRC:CL:WL:tCDLR:tWR:nbkgrp:tCCDL:tRTPL}
-rop_latency                          120 # ROP queue latency (default 85)
-dram_latency                         100 # DRAM latency (default 30)
-gpgpu_mem_addr_mapping dramid@8;00000000.00000000.00000000.00000000.0000RRRR.RRRRRRRR.BBBCCCCB.CCSSSSSS # mapping memory address to dram model {dramid@<start bit>;<memory address map>}
-gpgpu_mem_addr_test                    0 # run sweep test to check address mapping for aliased address
-gpgpu_mem_address_mask                    1 # 0 = old addressing mask, 1 = new addressing mask, 2 = new add. mask + flipped bank sel and chip sel bits
-gpuwattch_xml_file  gpuwattch_gtx480.xml # GPUWattch XML file
-power_simulation_enabled                    1 # Turn on power simulator (1=On, 0=Off)
-power_per_cycle_dump                    0 # Dump detailed power output each cycle
-power_trace_enabled                    0 # produce a file for the power trace (1=On, 0=Off)
-power_trace_zlevel                     6 # Compression level of the power trace output log (0=no comp, 9=highest)
-steady_power_levels_enabled                    0 # produce a file for the steady power levels (1=On, 0=Off)
-steady_state_definition                  8:4 # allowed deviation:number of samples
-gpgpu_max_cycle                        0 # terminates gpu simulation early (0 = no limit)
-gpgpu_max_insn                         0 # terminates gpu simulation early (0 = no limit)
-gpgpu_max_cta                          0 # terminates gpu simulation early (0 = no limit)
-gpgpu_runtime_stat                   500 # display runtime statistics such as dram utilization {<freq>:<flag>}
-liveness_message_freq                    1 # Minimum number of seconds between simulation liveness messages (0 = always print)
-gpgpu_flush_l1_cache                    0 # Flush L1 cache at the end of each kernel call
-gpgpu_flush_l2_cache                    0 # Flush L2 cache at the end of each kernel call
-gpgpu_deadlock_detect                    1 # Stop the simulation at deadlock (1=on (default), 0=off)
-gpgpu_ptx_instruction_classification                    0 # if enabled will classify ptx instruction types per kernel (Max 255 kernels now)
-gpgpu_ptx_sim_mode                     0 # Select between Performance (default) or Functional simulation (1)
-gpgpu_clock_domains 700.0:700.0:700.0:924.0 # Clock Domain Frequencies in MhZ {<Core Clock>:<ICNT Clock>:<L2 Clock>:<DRAM Clock>}
-gpgpu_max_concurrent_kernel                    8 # maximum kernels that can run concurrently on GPU
-gpgpu_cflog_interval                    0 # Interval between each snapshot in control flow logger
-visualizer_enabled                     0 # Turn on visualizer output (1=On, 0=Off)
-visualizer_outputfile                 NULL # Specifies the output log file for visualizer
-visualizer_zlevel                      6 # Compression level of the visualizer output log (0=no comp, 9=highest)
-trace_enabled                          0 # Turn on traces
-trace_components                    none # comma seperated list of traces to enable. Complete list found in trace_streams.tup. Default none
-trace_sampling_core                    0 # The core which is printed using CORE_DPRINTF. Default 0
-trace_sampling_memory_partition                   -1 # The memory partition which is printed using MEMPART_DPRINTF. Default -1 (i.e. all)
-enable_ptx_file_line_stats                    1 # Turn on PTX source line statistic profiling. (1 = On)
-ptx_line_stats_filename gpgpu_inst_stats.txt # Output file for PTX source line statistics.
-gpgpu_kernel_launch_latency                    0 # Kernel launch latency in cycles. Default: 0
-gpgpu_cdp_enabled                      0 # Turn on CDP
-save_embedded_ptx                      0 # saves ptx files embedded in binary as <n>.ptx
-keep                                   0 # keep intermediate files created by GPGPU-Sim when interfacing with external programs
-gpgpu_ptx_save_converted_ptxplus                    0 # Saved converted ptxplus to a file
-ptx_opcode_latency_int         4,13,4,5,145 # Opcode latencies for integers <ADD,MAX,MUL,MAD,DIV>Default 1,1,19,25,145
-ptx_opcode_latency_fp          4,13,4,5,39 # Opcode latencies for single precision floating points <ADD,MAX,MUL,MAD,DIV>Default 1,1,1,1,30
-ptx_opcode_latency_dp         8,19,8,8,330 # Opcode latencies for double precision floating points <ADD,MAX,MUL,MAD,DIV>Default 8,8,8,8,335
-ptx_opcode_initiation_int            1,2,2,1,8 # Opcode initiation intervals for integers <ADD,MAX,MUL,MAD,DIV>Default 1,1,4,4,32
-ptx_opcode_initiation_fp            1,2,1,1,4 # Opcode initiation intervals for single precision floating points <ADD,MAX,MUL,MAD,DIV>Default 1,1,1,1,5
-ptx_opcode_initiation_dp         8,16,8,8,130 # Opcode initiation intervals for double precision floating points <ADD,MAX,MUL,MAD,DIV>Default 8,8,8,8,130
-cdp_latency         7200,8000,100,12000,1600 # CDP API latency <cudaStreamCreateWithFlags, cudaGetParameterBufferV2_init_perWarp, cudaGetParameterBufferV2_perKernel, cudaLaunchDeviceV2_init_perWarp, cudaLaunchDevicV2_perKernel>Default 7200,8000,100,12000,1600
DRAM Timing Options:
nbk                                    16 # number of banks
CCD                                     2 # column to column delay
RRD                                     6 # minimal delay between activation of rows in different banks
RCD                                    12 # row to column delay
RAS                                    28 # time needed to activate row
RP                                     12 # time needed to precharge (deactivate) row
RC                                     40 # row cycle time
CDLR                                    5 # switching from write to read (changes tWTR)
WR                                     12 # last data-in to row precharge
CL                                     12 # CAS latency
WL                                      4 # Write latency
nbkgrp                                  4 # number of bank groups
CCDL                                    3 # column to column delay between accesses to different bank groups
RTPL                                    2 # read to precharge delay between accesses to different bank groups
Total number of memory sub partition = 12
addr_dec_mask[CHIP]  = 0000000000000000 	high:64 low:0
addr_dec_mask[BK]    = 000000000000e100 	high:16 low:8
addr_dec_mask[ROW]   = 000000000fff0000 	high:28 low:16
addr_dec_mask[COL]   = 0000000000001eff 	high:13 low:0
addr_dec_mask[BURST] = 000000000000003f 	high:6 low:0
sub_partition_id_mask = 0000000000000100
GPGPU-Sim uArch: clock freqs: 700000000.000000:700000000.000000:700000000.000000:924000000.000000
GPGPU-Sim uArch: clock periods: 0.00000000142857142857:0.00000000142857142857:0.00000000142857142857:0.00000000108225108225
*** Initializing Memory Statistics ***
GPGPU-Sim uArch: interconnect node map (shaderID+MemID to icntID)
GPGPU-Sim uArch: Memory nodes ID start from index: 15
GPGPU-Sim uArch:    0   1   2   3   4
GPGPU-Sim uArch:    5   6   7   8   9
GPGPU-Sim uArch:   10  11  12  13  14
GPGPU-Sim uArch:   15  16  17  18  19
GPGPU-Sim uArch:   20  21  22  23  24
GPGPU-Sim uArch:   25  26
GPGPU-Sim uArch: interconnect node reverse map (icntID to shaderID+MemID)
GPGPU-Sim uArch: Memory nodes start from ID: 15
GPGPU-Sim uArch:    0   1   2   3   4
GPGPU-Sim uArch:    5   6   7   8   9
GPGPU-Sim uArch:   10  11  12  13  14
GPGPU-Sim uArch:   15  16  17  18  19
GPGPU-Sim uArch:   20  21  22  23  24
GPGPU-Sim uArch:   25  26
2e2a2126a76712faffefaccb9120491a  /home/min/a/tpritche/Courses/ECE_695_GPU/Assignments/HW2/GPGPU-Sim/benchmarks/wp/WP
GPGPU-Sim uArch: performance model initialization complete.
GPGPU-Sim PTX: __cudaRegisterFatBinary, fat_cubin_handle = 1, filename=wsm5_gpu.f.cu
self exe links to: /home/min/a/tpritche/Courses/ECE_695_GPU/Assignments/HW2/GPGPU-Sim/benchmarks/wp/WP
Running md5sum using "md5sum /home/min/a/tpritche/Courses/ECE_695_GPU/Assignments/HW2/GPGPU-Sim/benchmarks/wp/WP "
Parsing file _cuobjdump_complete_output_hVp5sy
######### cuobjdump parser ########
## Adding new section ELF
Adding arch: sm_10
Adding identifier: wsm5.f.cu
## Adding new section PTX
Adding ptx filename: _cuobjdump_1.ptx
Adding arch: sm_10
Adding identifier: wsm5.f.cu
## Adding new section PTX
Adding ptx filename: _cuobjdump_2.ptx
Adding arch: sm_20
Adding identifier: wsm5.f.cu
## Adding new section ELF
Adding arch: sm_20
Adding identifier: wsm5.f.cu
## Adding new section ELF
Adding arch: sm_10
Adding identifier: wsm5_gpu.f.cu
## Adding new section PTX
Adding ptx filename: _cuobjdump_3.ptx
Adding arch: sm_10
Adding identifier: wsm5_gpu.f.cu
## Adding new section PTX
Adding ptx filename: _cuobjdump_4.ptx
Adding arch: sm_20
Adding identifier: wsm5_gpu.f.cu
## Adding new section ELF
Adding arch: sm_20
Adding identifier: wsm5_gpu.f.cu
Done parsing!!!
GPGPU-Sim PTX: __cudaRegisterFunction _Z8wsm5_gpuPfS_S_S_S_S_S_S_S_S_S_S_S_S_S_fS_iiiiiiiiiiiiiiiiii : hostFun 0x0x41b110, fat_cubin_handle = 1
GPGPU-Sim PTX: allocating stack frame region for .param "func_retval0" from 0x0 to 0x10
GPGPU-Sim PTX: allocating stack frame region for .param "_Zplf6Float4_param_0" from 0x10 to 0x14
GPGPU-Sim PTX: allocating stack frame region for .param "_Zplf6Float4_param_1" from 0x14 to 0x24
GPGPU-Sim PTX: instruction assembly for function '_Zplf6Float4'...   done.
GPGPU-Sim PTX: finding reconvergence points for '_Zplf6Float4'...
GPGPU-Sim PTX: Finding dominators for '_Zplf6Float4'...
GPGPU-Sim PTX: Finding immediate dominators for '_Zplf6Float4'...
GPGPU-Sim PTX: Finding postdominators for '_Zplf6Float4'...
GPGPU-Sim PTX: Finding immediate postdominators for '_Zplf6Float4'...
GPGPU-Sim PTX: pre-decoding instructions for '_Zplf6Float4'...
GPGPU-Sim PTX: reconvergence points for _Zplf6Float4...
GPGPU-Sim PTX: ... end of reconvergence points for _Zplf6Float4
GPGPU-Sim PTX: ... done pre-decoding instructions for '_Zplf6Float4'.
GPGPU-Sim PTX: allocating stack frame region for .param "func_retval0" from 0x0 to 0x10
GPGPU-Sim PTX: allocating stack frame region for .param "_Zmlf6Float4_param_0" from 0x10 to 0x14
GPGPU-Sim PTX: allocating stack frame region for .param "_Zmlf6Float4_param_1" from 0x14 to 0x24
GPGPU-Sim PTX: instruction assembly for function '_Zmlf6Float4'...   done.
GPGPU-Sim PTX: finding reconvergence points for '_Zmlf6Float4'...
GPGPU-Sim PTX: Finding dominators for '_Zmlf6Float4'...
GPGPU-Sim PTX: Finding immediate dominators for '_Zmlf6Float4'...
GPGPU-Sim PTX: Finding postdominators for '_Zmlf6Float4'...
GPGPU-Sim PTX: Finding immediate postdominators for '_Zmlf6Float4'...
GPGPU-Sim PTX: pre-decoding instructions for '_Zmlf6Float4'...
GPGPU-Sim PTX: reconvergence points for _Zmlf6Float4...
GPGPU-Sim PTX: ... end of reconvergence points for _Zmlf6Float4
GPGPU-Sim PTX: ... done pre-decoding instructions for '_Zmlf6Float4'.
GPGPU-Sim PTX: allocating stack frame region for .param "func_retval0" from 0x0 to 0x10
GPGPU-Sim PTX: allocating stack frame region for .param "_Zdvf6Float4_param_0" from 0x10 to 0x14
GPGPU-Sim PTX: allocating stack frame region for .param "_Zdvf6Float4_param_1" from 0x14 to 0x24
GPGPU-Sim PTX: instruction assembly for function '_Zdvf6Float4'...   done.
GPGPU-Sim PTX: finding reconvergence points for '_Zdvf6Float4'...
GPGPU-Sim PTX: Finding dominators for '_Zdvf6Float4'...
GPGPU-Sim PTX: Finding immediate dominators for '_Zdvf6Float4'...
GPGPU-Sim PTX: Finding postdominators for '_Zdvf6Float4'...
GPGPU-Sim PTX: Finding immediate postdominators for '_Zdvf6Float4'...
GPGPU-Sim PTX: pre-decoding instructions for '_Zdvf6Float4'...
GPGPU-Sim PTX: reconvergence points for _Zdvf6Float4...
GPGPU-Sim PTX: ... end of reconvergence points for _Zdvf6Float4
GPGPU-Sim PTX: ... done pre-decoding instructions for '_Zdvf6Float4'.
GPGPU-Sim PTX: allocating stack frame region for .param "func_retval0" from 0x0 to 0x10
GPGPU-Sim PTX: allocating stack frame region for .param "_Zmif6Float4_param_0" from 0x10 to 0x14
GPGPU-Sim PTX: allocating stack frame region for .param "_Zmif6Float4_param_1" from 0x14 to 0x24
GPGPU-Sim PTX: instruction assembly for function '_Zmif6Float4'...   done.
GPGPU-Sim PTX: finding reconvergence points for '_Zmif6Float4'...
GPGPU-Sim PTX: Finding dominators for '_Zmif6Float4'...
GPGPU-Sim PTX: Finding immediate dominators for '_Zmif6Float4'...
GPGPU-Sim PTX: Finding postdominators for '_Zmif6Float4'...
GPGPU-Sim PTX: Finding immediate postdominators for '_Zmif6Float4'...
GPGPU-Sim PTX: pre-decoding instructions for '_Zmif6Float4'...
GPGPU-Sim PTX: reconvergence points for _Zmif6Float4...
GPGPU-Sim PTX: ... end of reconvergence points for _Zmif6Float4
GPGPU-Sim PTX: ... done pre-decoding instructions for '_Zmif6Float4'.
GPGPU-Sim PTX: allocating stack frame region for .param "func_retval0" from 0x0 to 0x10
GPGPU-Sim PTX: allocating stack frame region for .param "_Z3max6Float4S__param_0" from 0x10 to 0x20
GPGPU-Sim PTX: allocating stack frame region for .param "_Z3max6Float4S__param_1" from 0x20 to 0x30
GPGPU-Sim PTX: instruction assembly for function '_Z3max6Float4S_'...   done.
GPGPU-Sim PTX: finding reconvergence points for '_Z3max6Float4S_'...
GPGPU-Sim PTX: Finding dominators for '_Z3max6Float4S_'...
GPGPU-Sim PTX: Finding immediate dominators for '_Z3max6Float4S_'...
GPGPU-Sim PTX: Finding postdominators for '_Z3max6Float4S_'...
GPGPU-Sim PTX: Finding immediate postdominators for '_Z3max6Float4S_'...
GPGPU-Sim PTX: pre-decoding instructions for '_Z3max6Float4S_'...
GPGPU-Sim PTX: reconvergence points for _Z3max6Float4S_...
GPGPU-Sim PTX: ... end of reconvergence points for _Z3max6Float4S_
GPGPU-Sim PTX: ... done pre-decoding instructions for '_Z3max6Float4S_'.
GPGPU-Sim PTX: allocating stack frame region for .param "func_retval0" from 0x0 to 0x10
GPGPU-Sim PTX: allocating stack frame region for .param "_Z3maxf6Float4_param_0" from 0x10 to 0x14
GPGPU-Sim PTX: allocating stack frame region for .param "_Z3maxf6Float4_param_1" from 0x14 to 0x24
GPGPU-Sim PTX: instruction assembly for function '_Z3maxf6Float4'...   done.
GPGPU-Sim PTX: finding reconvergence points for '_Z3maxf6Float4'...
GPGPU-Sim PTX: Finding dominators for '_Z3maxf6Float4'...
GPGPU-Sim PTX: Finding immediate dominators for '_Z3maxf6Float4'...
GPGPU-Sim PTX: Finding postdominators for '_Z3maxf6Float4'...
GPGPU-Sim PTX: Finding immediate postdominators for '_Z3maxf6Float4'...
GPGPU-Sim PTX: pre-decoding instructions for '_Z3maxf6Float4'...
GPGPU-Sim PTX: reconvergence points for _Z3maxf6Float4...
GPGPU-Sim PTX: ... end of reconvergence points for _Z3maxf6Float4
GPGPU-Sim PTX: ... done pre-decoding instructions for '_Z3maxf6Float4'.
GPGPU-Sim PTX: allocating stack frame region for .param "func_retval0" from 0x0 to 0x10
GPGPU-Sim PTX: allocating stack frame region for .param "_Z3max6Float4f_param_0" from 0x10 to 0x20
GPGPU-Sim PTX: allocating stack frame region for .param "_Z3max6Float4f_param_1" from 0x20 to 0x24
GPGPU-Sim PTX: instruction assembly for function '_Z3max6Float4f'...   done.
GPGPU-Sim PTX: finding reconvergence points for '_Z3max6Float4f'...
GPGPU-Sim PTX: Finding dominators for '_Z3max6Float4f'...
GPGPU-Sim PTX: Finding immediate dominators for '_Z3max6Float4f'...
GPGPU-Sim PTX: Finding postdominators for '_Z3max6Float4f'...
GPGPU-Sim PTX: Finding immediate postdominators for '_Z3max6Float4f'...
GPGPU-Sim PTX: pre-decoding instructions for '_Z3max6Float4f'...
GPGPU-Sim PTX: reconvergence points for _Z3max6Float4f...
GPGPU-Sim PTX: ... end of reconvergence points for _Z3max6Float4f
GPGPU-Sim PTX: ... done pre-decoding instructions for '_Z3max6Float4f'.
GPGPU-Sim PTX: allocating stack frame region for .param "func_retval0" from 0x0 to 0x10
GPGPU-Sim PTX: allocating stack frame region for .param "_Z3min6Float4S__param_0" from 0x10 to 0x20
GPGPU-Sim PTX: allocating stack frame region for .param "_Z3min6Float4S__param_1" from 0x20 to 0x30
GPGPU-Sim PTX: instruction assembly for function '_Z3min6Float4S_'...   done.
GPGPU-Sim PTX: finding reconvergence points for '_Z3min6Float4S_'...
GPGPU-Sim PTX: Finding dominators for '_Z3min6Float4S_'...
GPGPU-Sim PTX: Finding immediate dominators for '_Z3min6Float4S_'...
GPGPU-Sim PTX: Finding postdominators for '_Z3min6Float4S_'...
GPGPU-Sim PTX: Finding immediate postdominators for '_Z3min6Float4S_'...
GPGPU-Sim PTX: pre-decoding instructions for '_Z3min6Float4S_'...
GPGPU-Sim PTX: reconvergence points for _Z3min6Float4S_...
GPGPU-Sim PTX: ... end of reconvergence points for _Z3min6Float4S_
GPGPU-Sim PTX: ... done pre-decoding instructions for '_Z3min6Float4S_'.
GPGPU-Sim PTX: allocating stack frame region for .param "func_retval0" from 0x0 to 0x10
GPGPU-Sim PTX: allocating stack frame region for .param "_Z3minf6Float4_param_0" from 0x10 to 0x14
GPGPU-Sim PTX: allocating stack frame region for .param "_Z3minf6Float4_param_1" from 0x14 to 0x24
GPGPU-Sim PTX: instruction assembly for function '_Z3minf6Float4'...   done.
GPGPU-Sim PTX: finding reconvergence points for '_Z3minf6Float4'...
GPGPU-Sim PTX: Finding dominators for '_Z3minf6Float4'...
GPGPU-Sim PTX: Finding immediate dominators for '_Z3minf6Float4'...
GPGPU-Sim PTX: Finding postdominators for '_Z3minf6Float4'...
GPGPU-Sim PTX: Finding immediate postdominators for '_Z3minf6Float4'...
GPGPU-Sim PTX: pre-decoding instructions for '_Z3minf6Float4'...
GPGPU-Sim PTX: reconvergence points for _Z3minf6Float4...
GPGPU-Sim PTX: ... end of reconvergence points for _Z3minf6Float4
GPGPU-Sim PTX: ... done pre-decoding instructions for '_Z3minf6Float4'.
GPGPU-Sim PTX: allocating stack frame region for .param "func_retval0" from 0x0 to 0x10
GPGPU-Sim PTX: allocating stack frame region for .param "_Z3min6Float4f_param_0" from 0x10 to 0x20
GPGPU-Sim PTX: allocating stack frame region for .param "_Z3min6Float4f_param_1" from 0x20 to 0x24
GPGPU-Sim PTX: instruction assembly for function '_Z3min6Float4f'...   done.
GPGPU-Sim PTX: finding reconvergence points for '_Z3min6Float4f'...
GPGPU-Sim PTX: Finding dominators for '_Z3min6Float4f'...
GPGPU-Sim PTX: Finding immediate dominators for '_Z3min6Float4f'...
GPGPU-Sim PTX: Finding postdominators for '_Z3min6Float4f'...
GPGPU-Sim PTX: Finding immediate postdominators for '_Z3min6Float4f'...
GPGPU-Sim PTX: pre-decoding instructions for '_Z3min6Float4f'...
GPGPU-Sim PTX: reconvergence points for _Z3min6Float4f...
GPGPU-Sim PTX: ... end of reconvergence points for _Z3min6Float4f
GPGPU-Sim PTX: ... done pre-decoding instructions for '_Z3min6Float4f'.
GPGPU-Sim PTX: allocating stack frame region for .param "func_retval0" from 0x0 to 0x10
GPGPU-Sim PTX: allocating stack frame region for .param "_Z5trunc6Float4_param_0" from 0x10 to 0x20
GPGPU-Sim PTX: instruction assembly for function '_Z5trunc6Float4'...   done.
GPGPU-Sim PTX: finding reconvergence points for '_Z5trunc6Float4'...
GPGPU-Sim PTX: Finding dominators for '_Z5trunc6Float4'...
GPGPU-Sim PTX: Finding immediate dominators for '_Z5trunc6Float4'...
GPGPU-Sim PTX: Finding postdominators for '_Z5trunc6Float4'...
GPGPU-Sim PTX: Finding immediate postdominators for '_Z5trunc6Float4'...
GPGPU-Sim PTX: pre-decoding instructions for '_Z5trunc6Float4'...
GPGPU-Sim PTX: reconvergence points for _Z5trunc6Float4...
GPGPU-Sim PTX: ... end of reconvergence points for _Z5trunc6Float4
GPGPU-Sim PTX: ... done pre-decoding instructions for '_Z5trunc6Float4'.
GPGPU-Sim PTX: allocating stack frame region for .param "func_retval0" from 0x0 to 0x10
GPGPU-Sim PTX: allocating stack frame region for .param "_Z3log6Float4_param_0" from 0x10 to 0x20
GPGPU-Sim PTX: instruction assembly for function '_Z3log6Float4'...   done.
GPGPU-Sim PTX: finding reconvergence points for '_Z3log6Float4'...
GPGPU-Sim PTX: Finding dominators for '_Z3log6Float4'...
GPGPU-Sim PTX: Finding immediate dominators for '_Z3log6Float4'...
GPGPU-Sim PTX: Finding postdominators for '_Z3log6Float4'...
GPGPU-Sim PTX: Finding immediate postdominators for '_Z3log6Float4'...
GPGPU-Sim PTX: pre-decoding instructions for '_Z3log6Float4'...
GPGPU-Sim PTX: reconvergence points for _Z3log6Float4...
GPGPU-Sim PTX: ... end of reconvergence points for _Z3log6Float4
GPGPU-Sim PTX: ... done pre-decoding instructions for '_Z3log6Float4'.
GPGPU-Sim PTX: allocating stack frame region for .param "func_retval0" from 0x0 to 0x10
GPGPU-Sim PTX: allocating stack frame region for .param "_Z3exp6Float4_param_0" from 0x10 to 0x20
GPGPU-Sim PTX: instruction assembly for function '_Z3exp6Float4'...   done.
GPGPU-Sim PTX: finding reconvergence points for '_Z3exp6Float4'...
GPGPU-Sim PTX: Finding dominators for '_Z3exp6Float4'...
GPGPU-Sim PTX: Finding immediate dominators for '_Z3exp6Float4'...
GPGPU-Sim PTX: Finding postdominators for '_Z3exp6Float4'...
GPGPU-Sim PTX: Finding immediate postdominators for '_Z3exp6Float4'...
GPGPU-Sim PTX: pre-decoding instructions for '_Z3exp6Float4'...
GPGPU-Sim PTX: reconvergence points for _Z3exp6Float4...
GPGPU-Sim PTX: ... end of reconvergence points for _Z3exp6Float4
GPGPU-Sim PTX: ... done pre-decoding instructions for '_Z3exp6Float4'.
GPGPU-Sim PTX: allocating stack frame region for .param "func_retval0" from 0x0 to 0x10
GPGPU-Sim PTX: allocating stack frame region for .param "_Z4sqrt6Float4_param_0" from 0x10 to 0x20
GPGPU-Sim PTX: instruction assembly for function '_Z4sqrt6Float4'...   done.
GPGPU-Sim PTX: finding reconvergence points for '_Z4sqrt6Float4'...
GPGPU-Sim PTX: Finding dominators for '_Z4sqrt6Float4'...
GPGPU-Sim PTX: Finding immediate dominators for '_Z4sqrt6Float4'...
GPGPU-Sim PTX: Finding postdominators for '_Z4sqrt6Float4'...
GPGPU-Sim PTX: Finding immediate postdominators for '_Z4sqrt6Float4'...
GPGPU-Sim PTX: pre-decoding instructions for '_Z4sqrt6Float4'...
GPGPU-Sim PTX: reconvergence points for _Z4sqrt6Float4...
GPGPU-Sim PTX: ... end of reconvergence points for _Z4sqrt6Float4
GPGPU-Sim PTX: ... done pre-decoding instructions for '_Z4sqrt6Float4'.
GPGPU-Sim PTX: allocating stack frame region for .local "__local_depot14" from 0x0 to 0x8c0
GPGPU-Sim PTX: instruction assembly for function '_Z8wsm5_gpuPfS_S_S_S_S_S_S_S_S_S_S_S_S_S_fS_iiiiiiiiiiiiiiiiii'...   done.
GPGPU-Sim PTX: finding reconvergence points for '_Z8wsm5_gpuPfS_S_S_S_S_S_S_S_S_S_S_S_S_S_fS_iiiiiiiiiiiiiiiiii'...
GPGPU-Sim PTX: Finding dominators for '_Z8wsm5_gpuPfS_S_S_S_S_S_S_S_S_S_S_S_S_S_fS_iiiiiiiiiiiiiiiiii'...
GPGPU-Sim PTX: Finding immediate dominators for '_Z8wsm5_gpuPfS_S_S_S_S_S_S_S_S_S_S_S_S_S_fS_iiiiiiiiiiiiiiiiii'...
GPGPU-Sim PTX: Finding postdominators for '_Z8wsm5_gpuPfS_S_S_S_S_S_S_S_S_S_S_S_S_S_fS_iiiiiiiiiiiiiiiiii'...
GPGPU-Sim PTX: Finding immediate postdominators for '_Z8wsm5_gpuPfS_S_S_S_S_S_S_S_S_S_S_S_S_S_fS_iiiiiiiiiiiiiiiiii'...
GPGPU-Sim PTX: pre-decoding instructions for '_Z8wsm5_gpuPfS_S_S_S_S_S_S_S_S_S_S_S_S_S_fS_iiiiiiiiiiiiiiiiii'...
GPGPU-Sim PTX: reconvergence points for _Z8wsm5_gpuPfS_S_S_S_S_S_S_S_S_S_S_S_S_S_fS_iiiiiiiiiiiiiiiiii...
GPGPU-Sim PTX:  1 (potential) branch divergence @  PC=0x8a0 (_1.ptx:614) @%p14 bra BB14_346;
GPGPU-Sim PTX:    immediate post dominator      @  PC=0x8dd0 (_1.ptx:7621) ret;
GPGPU-Sim PTX:  2 (potential) branch divergence @  PC=0x910 (_1.ptx:631) @%p15 bra BB14_346;
GPGPU-Sim PTX:    immediate post dominator      @  PC=0x8dd0 (_1.ptx:7621) ret;
GPGPU-Sim PTX:  3 (potential) branch divergence @  PC=0x9b0 (_1.ptx:663) @%p16 bra BB14_21;
GPGPU-Sim PTX:    immediate post dominator      @  PC=0x1088 (_1.ptx:1077) mov.f64 %fd392, 0d3FE1F01B866E43AB;
GPGPU-Sim PTX:  4 (potential) branch divergence @  PC=0x9d0 (_1.ptx:670) @%p17 bra BB14_21;
GPGPU-Sim PTX:    immediate post dominator      @  PC=0x1088 (_1.ptx:1077) mov.f64 %fd392, 0d3FE1F01B866E43AB;
GPGPU-Sim PTX:  5 (potential) branch divergence @  PC=0x9e0 (_1.ptx:674) @%p18 bra BB14_20;
GPGPU-Sim PTX:    immediate post dominator      @  PC=0x1088 (_1.ptx:1077) mov.f64 %fd392, 0d3FE1F01B866E43AB;
GPGPU-Sim PTX:  6 (potential) branch divergence @  PC=0x9f0 (_1.ptx:679) @%p19 bra BB14_19;
GPGPU-Sim PTX:    immediate post dominator      @  PC=0x1088 (_1.ptx:1077) mov.f64 %fd392, 0d3FE1F01B866E43AB;
GPGPU-Sim PTX:  7 (potential) branch divergence @  PC=0xa38 (_1.ptx:695) @%p20 bra BB14_18;
GPGPU-Sim PTX:    immediate post dominator      @  PC=0x1088 (_1.ptx:1077) mov.f64 %fd392, 0d3FE1F01B866E43AB;
GPGPU-Sim PTX:  8 (potential) branch divergence @  PC=0xa68 (_1.ptx:712) @%p21 bra BB14_8;
GPGPU-Sim PTX:    immediate post dominator      @  PC=0xaa8 (_1.ptx:734) add.s32 %r1120, %r1119, -1023;
GPGPU-Sim PTX:  9 (potential) branch divergence @  PC=0xa70 (_1.ptx:713) bra.uni BB14_9;
GPGPU-Sim PTX:    immediate post dominator      @  PC=0xaa8 (_1.ptx:734) add.s32 %r1120, %r1119, -1023;
GPGPU-Sim PTX: 10 (potential) branch divergence @  PC=0xad0 (_1.ptx:742) @%p22 bra BB14_10;
GPGPU-Sim PTX:    immediate post dominator      @  PC=0xb08 (_1.ptx:764) add.f64 %fd262, %fd1925, 0d3FF0000000000000;
GPGPU-Sim PTX: 11 (potential) branch divergence @  PC=0xad8 (_1.ptx:743) bra.uni BB14_11;
GPGPU-Sim PTX:    immediate post dominator      @  PC=0xb08 (_1.ptx:764) add.f64 %fd262, %fd1925, 0d3FF0000000000000;
GPGPU-Sim PTX: 12 (potential) branch divergence @  PC=0xe20 (_1.ptx:938) @%p26 bra BB14_13;
GPGPU-Sim PTX:    immediate post dominator      @  PC=0xfe8 (_1.ptx:1034) abs.f64 %fd387, %fd1926;
GPGPU-Sim PTX: 13 (potential) branch divergence @  PC=0xe58 (_1.ptx:949) bra.uni BB14_16;
GPGPU-Sim PTX:    immediate post dominator      @  PC=0xfe8 (_1.ptx:1034) abs.f64 %fd387, %fd1926;
GPGPU-Sim PTX: 14 (potential) branch divergence @  PC=0xf60 (_1.ptx:1003) @%p29 bra BB14_15;
GPGPU-Sim PTX:    immediate post dominator      @  PC=0xfe8 (_1.ptx:1034) abs.f64 %fd387, %fd1926;
GPGPU-Sim PTX: 15 (potential) branch divergence @  PC=0xfc8 (_1.ptx:1023) bra.uni BB14_16;
GPGPU-Sim PTX:    immediate post dominator      @  PC=0xfe8 (_1.ptx:1034) abs.f64 %fd387, %fd1926;
GPGPU-Sim PTX: 16 (potential) branch divergence @  PC=0xff8 (_1.ptx:1036) @%p31 bra BB14_17;
GPGPU-Sim PTX:    immediate post dominator      @  PC=0x1088 (_1.ptx:1077) mov.f64 %fd392, 0d3FE1F01B866E43AB;
GPGPU-Sim PTX: 17 (potential) branch divergence @  PC=0x1000 (_1.ptx:1037) bra.uni BB14_22;
GPGPU-Sim PTX:    immediate post dominator      @  PC=0x1088 (_1.ptx:1077) mov.f64 %fd392, 0d3FE1F01B866E43AB;
GPGPU-Sim PTX: 18 (potential) branch divergence @  PC=0x1010 (_1.ptx:1042) bra.uni BB14_22;
GPGPU-Sim PTX:    immediate post dominator      @  PC=0x1088 (_1.ptx:1077) mov.f64 %fd392, 0d3FE1F01B866E43AB;
GPGPU-Sim PTX: 19 (potential) branch divergence @  PC=0x1040 (_1.ptx:1053) bra.uni BB14_22;
GPGPU-Sim PTX:    immediate post dominator      @  PC=0x1088 (_1.ptx:1077) mov.f64 %fd392, 0d3FE1F01B866E43AB;
GPGPU-Sim PTX: 20 (potential) branch divergence @  PC=0x1058 (_1.ptx:1059) bra.uni BB14_22;
GPGPU-Sim PTX:    immediate post dominator      @  PC=0x1088 (_1.ptx:1077) mov.f64 %fd392, 0d3FE1F01B866E43AB;
GPGPU-Sim PTX: 21 (potential) branch divergence @  PC=0x1078 (_1.ptx:1070) bra.uni BB14_22;
GPGPU-Sim PTX:    immediate post dominator      @  PC=0x1088 (_1.ptx:1077) mov.f64 %fd392, 0d3FE1F01B866E43AB;
GPGPU-Sim PTX: 22 (potential) branch divergence @  PC=0x10b8 (_1.ptx:1086) @%p34 bra BB14_41;
GPGPU-Sim PTX:    immediate post dominator      @  PC=0x1790 (_1.ptx:1501) mul.f64 %fd45, %fd26, %fd1928;
GPGPU-Sim PTX: 23 (potential) branch divergence @  PC=0x10d8 (_1.ptx:1093) @%p35 bra BB14_41;
GPGPU-Sim PTX:    immediate post dominator      @  PC=0x1790 (_1.ptx:1501) mul.f64 %fd45, %fd26, %fd1928;
GPGPU-Sim PTX: 24 (potential) branch divergence @  PC=0x10e8 (_1.ptx:1097) @%p36 bra BB14_40;
GPGPU-Sim PTX:    immediate post dominator      @  PC=0x1790 (_1.ptx:1501) mul.f64 %fd45, %fd26, %fd1928;
GPGPU-Sim PTX: 25 (potential) branch divergence @  PC=0x10f8 (_1.ptx:1102) @%p37 bra BB14_39;
GPGPU-Sim PTX:    immediate post dominator      @  PC=0x1790 (_1.ptx:1501) mul.f64 %fd45, %fd26, %fd1928;
GPGPU-Sim PTX: 26 (potential) branch divergence @  PC=0x1140 (_1.ptx:1118) @%p38 bra BB14_38;
GPGPU-Sim PTX:    immediate post dominator      @  PC=0x1790 (_1.ptx:1501) mul.f64 %fd45, %fd26, %fd1928;
GPGPU-Sim PTX: 27 (potential) branch divergence @  PC=0x1170 (_1.ptx:1135) @%p39 bra BB14_28;
GPGPU-Sim PTX:    immediate post dominator      @  PC=0x11b0 (_1.ptx:1157) add.s32 %r1124, %r1123, -1023;
GPGPU-Sim PTX: 28 (potential) branch divergence @  PC=0x1178 (_1.ptx:1136) bra.uni BB14_29;
GPGPU-Sim PTX:    immediate post dominator      @  PC=0x11b0 (_1.ptx:1157) add.s32 %r1124, %r1123, -1023;
GPGPU-Sim PTX: 29 (potential) branch divergence @  PC=0x11d8 (_1.ptx:1165) @%p40 bra BB14_30;
GPGPU-Sim PTX:    immediate post dominator      @  PC=0x1210 (_1.ptx:1187) add.f64 %fd403, %fd1927, 0d3FF0000000000000;
GPGPU-Sim PTX: 30 (potential) branch divergence @  PC=0x11e0 (_1.ptx:1166) bra.uni BB14_31;
GPGPU-Sim PTX:    immediate post dominator      @  PC=0x1210 (_1.ptx:1187) add.f64 %fd403, %fd1927, 0d3FF0000000000000;
GPGPU-Sim PTX: 31 (potential) branch divergence @  PC=0x1528 (_1.ptx:1361) @%p44 bra BB14_33;
GPGPU-Sim PTX:    immediate post dominator      @  PC=0x16f0 (_1.ptx:1457) abs.f64 %fd528, %fd1928;
GPGPU-Sim PTX: 32 (potential) branch divergence @  PC=0x1560 (_1.ptx:1372) bra.uni BB14_36;
GPGPU-Sim PTX:    immediate post dominator      @  PC=0x16f0 (_1.ptx:1457) abs.f64 %fd528, %fd1928;
GPGPU-Sim PTX: 33 (potential) branch divergence @  PC=0x1668 (_1.ptx:1426) @%p47 bra BB14_35;
GPGPU-Sim PTX:    immediate post dominator      @  PC=0x16f0 (_1.ptx:1457) abs.f64 %fd528, %fd1928;
GPGPU-Sim PTX: 34 (potential) branch divergence @  PC=0x16d0 (_1.ptx:1446) bra.uni BB14_36;
GPGPU-Sim PTX:    immediate post dominator      @  PC=0x16f0 (_1.ptx:1457) abs.f64 %fd528, %fd1928;
GPGPU-Sim PTX: 35 (potential) branch divergence @  PC=0x1700 (_1.ptx:1459) @%p49 bra BB14_37;
GPGPU-Sim PTX:    immediate post dominator      @  PC=0x1790 (_1.ptx:1501) mul.f64 %fd45, %fd26, %fd1928;
GPGPU-Sim PTX: 36 (potential) branch divergence @  PC=0x1708 (_1.ptx:1460) bra.uni BB14_42;
GPGPU-Sim PTX:    immediate post dominator      @  PC=0x1790 (_1.ptx:1501) mul.f64 %fd45, %fd26, %fd1928;
GPGPU-Sim PTX: 37 (potential) branch divergence @  PC=0x1718 (_1.ptx:1465) bra.uni BB14_42;
GPGPU-Sim PTX:    immediate post dominator      @  PC=0x1790 (_1.ptx:1501) mul.f64 %fd45, %fd26, %fd1928;
GPGPU-Sim PTX: 38 (potential) branch divergence @  PC=0x1748 (_1.ptx:1476) bra.uni BB14_42;
GPGPU-Sim PTX:    immediate post dominator      @  PC=0x1790 (_1.ptx:1501) mul.f64 %fd45, %fd26, %fd1928;
GPGPU-Sim PTX: 39 (potential) branch divergence @  PC=0x1760 (_1.ptx:1482) bra.uni BB14_42;
GPGPU-Sim PTX:    immediate post dominator      @  PC=0x1790 (_1.ptx:1501) mul.f64 %fd45, %fd26, %fd1928;
GPGPU-Sim PTX: 40 (potential) branch divergence @  PC=0x1780 (_1.ptx:1493) bra.uni BB14_42;
GPGPU-Sim PTX:    immediate post dominator      @  PC=0x1790 (_1.ptx:1501) mul.f64 %fd45, %fd26, %fd1928;
GPGPU-Sim PTX: 41 (potential) branch divergence @  PC=0x1800 (_1.ptx:1522) @%p53 bra BB14_45;
GPGPU-Sim PTX:    immediate post dominator      @  PC=0x1850 (_1.ptx:1543) mul.f64 %fd53, %fd1930, 0d44919E47F21381F4;
GPGPU-Sim PTX: 42 (potential) branch divergence @  PC=0x1848 (_1.ptx:1539) @%p55 bra BB14_44;
GPGPU-Sim PTX:    immediate post dominator      @  PC=0x1850 (_1.ptx:1543) mul.f64 %fd53, %fd1930, 0d44919E47F21381F4;
GPGPU-Sim PTX: 43 (potential) branch divergence @  PC=0x1880 (_1.ptx:1549) @%p3 bra BB14_48;
GPGPU-Sim PTX:    immediate post dominator      @  PC=0x1968 (_1.ptx:1591) @%p3 bra BB14_59;
GPGPU-Sim PTX: 44 (potential) branch divergence @  PC=0x1960 (_1.ptx:1587) @%p56 bra BB14_47;
GPGPU-Sim PTX:    immediate post dominator      @  PC=0x1968 (_1.ptx:1591) @%p3 bra BB14_59;
GPGPU-Sim PTX: 45 (potential) branch divergence @  PC=0x1968 (_1.ptx:1591) @%p3 bra BB14_59;
GPGPU-Sim PTX:    immediate post dominator      @  PC=0x1af8 (_1.ptx:1673) @%p3 bra BB14_62;
GPGPU-Sim PTX: 46 (potential) branch divergence @  PC=0x1a18 (_1.ptx:1621) @%p57 bra BB14_52;
GPGPU-Sim PTX:    immediate post dominator      @  PC=0x1a30 (_1.ptx:1629) shl.b64 %rl113, %rl23, 2;
GPGPU-Sim PTX: 47 (potential) branch divergence @  PC=0x1a58 (_1.ptx:1634) @%p58 bra BB14_54;
GPGPU-Sim PTX:    immediate post dominator      @  PC=0x1a70 (_1.ptx:1642) add.s64 %rl26, %rl18, %rl113;
GPGPU-Sim PTX: 48 (potential) branch divergence @  PC=0x1a90 (_1.ptx:1646) @%p59 bra BB14_56;
GPGPU-Sim PTX:    immediate post dominator      @  PC=0x1aa8 (_1.ptx:1654) add.s64 %rl27, %rl17, %rl113;
GPGPU-Sim PTX: 49 (potential) branch divergence @  PC=0x1ac8 (_1.ptx:1658) @%p60 bra BB14_58;
GPGPU-Sim PTX:    immediate post dominator      @  PC=0x1ae0 (_1.ptx:1666) add.s32 %r1129, %r1129, 1;
GPGPU-Sim PTX: 50 (potential) branch divergence @  PC=0x1af0 (_1.ptx:1669) @%p61 bra BB14_50;
GPGPU-Sim PTX:    immediate post dominator      @  PC=0x1af8 (_1.ptx:1673) @%p3 bra BB14_62;
GPGPU-Sim PTX: 51 (potential) branch divergence @  PC=0x1af8 (_1.ptx:1673) @%p3 bra BB14_62;
GPGPU-Sim PTX:    immediate post dominator      @  PC=0x1c58 (_1.ptx:1735) mov.f32 %f263, 0f42F00000;
GPGPU-Sim PTX: 52 (potential) branch divergence @  PC=0x1c50 (_1.ptx:1732) @%p62 bra BB14_61;
GPGPU-Sim PTX:    immediate post dominator      @  PC=0x1c58 (_1.ptx:1735) mov.f32 %f263, 0f42F00000;
GPGPU-Sim PTX: 53 (potential) branch divergence @  PC=0x1cb8 (_1.ptx:1755) @%p64 bra BB14_343;
GPGPU-Sim PTX:    immediate post dominator      @  PC=0x8c70 (_1.ptx:7559) ld.param.u32 %r1083, [_Z8wsm5_gpuPfS_S_S_S_S_S_S_S_S_S_S_S_S_S_fS_iiiiiiiiiiiiiiiiii_param_33];
GPGPU-Sim PTX: 54 (potential) branch divergence @  PC=0x1e80 (_1.ptx:1841) @%p65 bra BB14_83;
GPGPU-Sim PTX:    immediate post dominator      @  PC=0x26f8 (_1.ptx:2284) ld.param.u32 %r1096, [_Z8wsm5_gpuPfS_S_S_S_S_S_S_S_S_S_S_S_S_S_fS_iiiiiiiiiiiiiiiiii_param_33];
GPGPU-Sim PTX: 55 (potential) branch divergence @  PC=0x1fc0 (_1.ptx:1899) @%p4 bra BB14_68;
GPGPU-Sim PTX:    immediate post dominator      @  PC=0x2188 (_1.ptx:1995) mul.f64 %fd612, %fd1931, 0d4083163D80000000;
GPGPU-Sim PTX: 56 (potential) branch divergence @  PC=0x1ff8 (_1.ptx:1910) bra.uni BB14_71;
GPGPU-Sim PTX:    immediate post dominator      @  PC=0x2188 (_1.ptx:1995) mul.f64 %fd612, %fd1931, 0d4083163D80000000;
GPGPU-Sim PTX: 57 (potential) branch divergence @  PC=0x2100 (_1.ptx:1964) @%p70 bra BB14_70;
GPGPU-Sim PTX:    immediate post dominator      @  PC=0x2188 (_1.ptx:1995) mul.f64 %fd612, %fd1931, 0d4083163D80000000;
GPGPU-Sim PTX: 58 (potential) branch divergence @  PC=0x2168 (_1.ptx:1984) bra.uni BB14_71;
GPGPU-Sim PTX:    immediate post dominator      @  PC=0x2188 (_1.ptx:1995) mul.f64 %fd612, %fd1931, 0d4083163D80000000;
GPGPU-Sim PTX: 59 (potential) branch divergence @  PC=0x2260 (_1.ptx:2036) @%p72 bra BB14_77;
GPGPU-Sim PTX:    immediate post dominator      @  PC=0x2638 (_1.ptx:2244) mul.f64 %fd691, %fd1932, 0d4083163D80000000;
GPGPU-Sim PTX: 60 (potential) branch divergence @  PC=0x2268 (_1.ptx:2039) @%p4 bra BB14_74;
GPGPU-Sim PTX:    immediate post dominator      @  PC=0x2638 (_1.ptx:2244) mul.f64 %fd691, %fd1932, 0d4083163D80000000;
GPGPU-Sim PTX: 61 (potential) branch divergence @  PC=0x22a0 (_1.ptx:2050) bra.uni BB14_82;
GPGPU-Sim PTX:    immediate post dominator      @  PC=0x2638 (_1.ptx:2244) mul.f64 %fd691, %fd1932, 0d4083163D80000000;
GPGPU-Sim PTX: 62 (potential) branch divergence @  PC=0x23a8 (_1.ptx:2104) @%p75 bra BB14_76;
GPGPU-Sim PTX:    immediate post dominator      @  PC=0x2638 (_1.ptx:2244) mul.f64 %fd691, %fd1932, 0d4083163D80000000;
GPGPU-Sim PTX: 63 (potential) branch divergence @  PC=0x2410 (_1.ptx:2124) bra.uni BB14_82;
GPGPU-Sim PTX:    immediate post dominator      @  PC=0x2638 (_1.ptx:2244) mul.f64 %fd691, %fd1932, 0d4083163D80000000;
GPGPU-Sim PTX: 64 (potential) branch divergence @  PC=0x2430 (_1.ptx:2132) bra.uni BB14_82;
GPGPU-Sim PTX:    immediate post dominator      @  PC=0x2638 (_1.ptx:2244) mul.f64 %fd691, %fd1932, 0d4083163D80000000;
GPGPU-Sim PTX: 65 (potential) branch divergence @  PC=0x2470 (_1.ptx:2149) @%p79 bra BB14_79;
GPGPU-Sim PTX:    immediate post dominator      @  PC=0x2638 (_1.ptx:2244) mul.f64 %fd691, %fd1932, 0d4083163D80000000;
GPGPU-Sim PTX: 66 (potential) branch divergence @  PC=0x24a8 (_1.ptx:2160) bra.uni BB14_82;
GPGPU-Sim PTX:    immediate post dominator      @  PC=0x2638 (_1.ptx:2244) mul.f64 %fd691, %fd1932, 0d4083163D80000000;
GPGPU-Sim PTX: 67 (potential) branch divergence @  PC=0x25b0 (_1.ptx:2214) @%p82 bra BB14_81;
GPGPU-Sim PTX:    immediate post dominator      @  PC=0x2638 (_1.ptx:2244) mul.f64 %fd691, %fd1932, 0d4083163D80000000;
GPGPU-Sim PTX: 68 (potential) branch divergence @  PC=0x2618 (_1.ptx:2234) bra.uni BB14_82;
GPGPU-Sim PTX:    immediate post dominator      @  PC=0x2638 (_1.ptx:2244) mul.f64 %fd691, %fd1932, 0d4083163D80000000;
GPGPU-Sim PTX: 69 (potential) branch divergence @  PC=0x26f0 (_1.ptx:2281) @%p84 bra BB14_66;
GPGPU-Sim PTX:    immediate post dominator      @  PC=0x26f8 (_1.ptx:2284) ld.param.u32 %r1096, [_Z8wsm5_gpuPfS_S_S_S_S_S_S_S_S_S_S_S_S_S_fS_iiiiiiiiiiiiiiiiii_param_33];
GPGPU-Sim PTX: 70 (potential) branch divergence @  PC=0x2720 (_1.ptx:2290) @%p85 bra BB14_86;
GPGPU-Sim PTX:    immediate post dominator      @  PC=0x2788 (_1.ptx:2311) ld.param.u32 %r1094, [_Z8wsm5_gpuPfS_S_S_S_S_S_S_S_S_S_S_S_S_S_fS_iiiiiiiiiiiiiiiiii_param_33];
GPGPU-Sim PTX: 71 (potential) branch divergence @  PC=0x2780 (_1.ptx:2308) @%p86 bra BB14_85;
GPGPU-Sim PTX:    immediate post dominator      @  PC=0x2788 (_1.ptx:2311) ld.param.u32 %r1094, [_Z8wsm5_gpuPfS_S_S_S_S_S_S_S_S_S_S_S_S_S_fS_iiiiiiiiiiiiiiiiii_param_33];
GPGPU-Sim PTX: 72 (potential) branch divergence @  PC=0x27b0 (_1.ptx:2317) @%p87 bra BB14_110;
GPGPU-Sim PTX:    immediate post dominator      @  PC=0x33b8 (_1.ptx:2925) cvt.rn.f64.s32 %fd860, %r1135;
GPGPU-Sim PTX: 73 (potential) branch divergence @  PC=0x28c8 (_1.ptx:2365) @%p90 bra BB14_90;
GPGPU-Sim PTX:    immediate post dominator      @  PC=0x2a90 (_1.ptx:2460) mov.f64 %fd739, 0d40E86A0000000000;
GPGPU-Sim PTX: 74 (potential) branch divergence @  PC=0x2900 (_1.ptx:2376) bra.uni BB14_93;
GPGPU-Sim PTX:    immediate post dominator      @  PC=0x2a90 (_1.ptx:2460) mov.f64 %fd739, 0d40E86A0000000000;
GPGPU-Sim PTX: 75 (potential) branch divergence @  PC=0x2a08 (_1.ptx:2430) @%p93 bra BB14_92;
GPGPU-Sim PTX:    immediate post dominator      @  PC=0x2a90 (_1.ptx:2460) mov.f64 %fd739, 0d40E86A0000000000;
GPGPU-Sim PTX: 76 (potential) branch divergence @  PC=0x2a70 (_1.ptx:2450) bra.uni BB14_93;
GPGPU-Sim PTX:    immediate post dominator      @  PC=0x2a90 (_1.ptx:2460) mov.f64 %fd739, 0d40E86A0000000000;
GPGPU-Sim PTX: 77 (potential) branch divergence @  PC=0x2b88 (_1.ptx:2499) @%p95 bra BB14_95;
GPGPU-Sim PTX:    immediate post dominator      @  PC=0x2e58 (_1.ptx:2653) shl.b64 %rl162, %rl38, 2;
GPGPU-Sim PTX: 78 (potential) branch divergence @  PC=0x2bc8 (_1.ptx:2512) bra.uni BB14_101;
GPGPU-Sim PTX:    immediate post dominator      @  PC=0x2e58 (_1.ptx:2653) shl.b64 %rl162, %rl38, 2;
GPGPU-Sim PTX: 79 (potential) branch divergence @  PC=0x2c60 (_1.ptx:2546) @%p98 bra BB14_97;
GPGPU-Sim PTX:    immediate post dominator      @  PC=0x2e28 (_1.ptx:2642) cvt.rn.ftz.f32.f64 %f665, %fd1934;
GPGPU-Sim PTX: 80 (potential) branch divergence @  PC=0x2c98 (_1.ptx:2557) bra.uni BB14_100;
GPGPU-Sim PTX:    immediate post dominator      @  PC=0x2e28 (_1.ptx:2642) cvt.rn.ftz.f32.f64 %f665, %fd1934;
GPGPU-Sim PTX: 81 (potential) branch divergence @  PC=0x2da0 (_1.ptx:2611) @%p101 bra BB14_99;
GPGPU-Sim PTX:    immediate post dominator      @  PC=0x2e28 (_1.ptx:2642) cvt.rn.ftz.f32.f64 %f665, %fd1934;
GPGPU-Sim PTX: 82 (potential) branch divergence @  PC=0x2e08 (_1.ptx:2631) bra.uni BB14_100;
GPGPU-Sim PTX:    immediate post dominator      @  PC=0x2e28 (_1.ptx:2642) cvt.rn.ftz.f32.f64 %f665, %fd1934;
GPGPU-Sim PTX: 83 (potential) branch divergence @  PC=0x2ee0 (_1.ptx:2671) @%p103 bra BB14_103;
GPGPU-Sim PTX:    immediate post dominator      @  PC=0x31c0 (_1.ptx:2827) cvt.ftz.f64.f32 %fd832, %f667;
GPGPU-Sim PTX: 84 (potential) branch divergence @  PC=0x2f28 (_1.ptx:2685) bra.uni BB14_109;
GPGPU-Sim PTX:    immediate post dominator      @  PC=0x31c0 (_1.ptx:2827) cvt.ftz.f64.f32 %fd832, %f667;
GPGPU-Sim PTX: 85 (potential) branch divergence @  PC=0x2fc8 (_1.ptx:2720) @%p106 bra BB14_105;
GPGPU-Sim PTX:    immediate post dominator      @  PC=0x3190 (_1.ptx:2816) cvt.rn.ftz.f32.f64 %f666, %fd1935;
GPGPU-Sim PTX: 86 (potential) branch divergence @  PC=0x3000 (_1.ptx:2731) bra.uni BB14_108;
GPGPU-Sim PTX:    immediate post dominator      @  PC=0x3190 (_1.ptx:2816) cvt.rn.ftz.f32.f64 %f666, %fd1935;
GPGPU-Sim PTX: 87 (potential) branch divergence @  PC=0x3108 (_1.ptx:2785) @%p109 bra BB14_107;
GPGPU-Sim PTX:    immediate post dominator      @  PC=0x3190 (_1.ptx:2816) cvt.rn.ftz.f32.f64 %f666, %fd1935;
GPGPU-Sim PTX: 88 (potential) branch divergence @  PC=0x3170 (_1.ptx:2805) bra.uni BB14_108;
GPGPU-Sim PTX:    immediate post dominator      @  PC=0x3190 (_1.ptx:2816) cvt.rn.ftz.f32.f64 %f666, %fd1935;
GPGPU-Sim PTX: 89 (potential) branch divergence @  PC=0x33a0 (_1.ptx:2917) @%p111 bra BB14_88;
GPGPU-Sim PTX:    immediate post dominator      @  PC=0x33a8 (_1.ptx:2918) bra.uni BB14_111;
GPGPU-Sim PTX: 90 (potential) branch divergence @  PC=0x33a8 (_1.ptx:2918) bra.uni BB14_111;
GPGPU-Sim PTX:    immediate post dominator      @  PC=0x33b8 (_1.ptx:2925) cvt.rn.f64.s32 %fd860, %r1135;
GPGPU-Sim PTX: 91 (potential) branch divergence @  PC=0x33d8 (_1.ptx:2930) @%p112 bra BB14_148;
GPGPU-Sim PTX:    immediate post dominator      @  PC=0x43b8 (_1.ptx:3741) mov.f32 %f690, %f689;
GPGPU-Sim PTX: 92 (potential) branch divergence @  PC=0x3670 (_1.ptx:3045) @%p6 bra BB14_117;
GPGPU-Sim PTX:    immediate post dominator      @  PC=0x38b8 (_1.ptx:3144) mov.f32 %f689, %f688;
GPGPU-Sim PTX: 93 (potential) branch divergence @  PC=0x38a0 (_1.ptx:3138) @%p113 bra BB14_115;
GPGPU-Sim PTX:    immediate post dominator      @  PC=0x38a8 (_1.ptx:3140) mov.f32 %f676, %f44;
GPGPU-Sim PTX: 94 (potential) branch divergence @  PC=0x38c8 (_1.ptx:3147) @%p5 bra BB14_146;
GPGPU-Sim PTX:    immediate post dominator      @  PC=0x4378 (_1.ptx:3730) setp.gt.s32 %p139, %r1136, %r1135;
GPGPU-Sim PTX: 95 (potential) branch divergence @  PC=0x3930 (_1.ptx:3165) @%p114 bra BB14_145;
GPGPU-Sim PTX:    immediate post dominator      @  PC=0x4360 (_1.ptx:3723) add.s32 %r1138, %r1138, -1;
GPGPU-Sim PTX: 96 (potential) branch divergence @  PC=0x39b8 (_1.ptx:3187) @%p115 bra BB14_145;
GPGPU-Sim PTX:    immediate post dominator      @  PC=0x4360 (_1.ptx:3723) add.s32 %r1138, %r1138, -1;
GPGPU-Sim PTX: 97 (potential) branch divergence @  PC=0x3a68 (_1.ptx:3224) @%p118 bra BB14_123;
GPGPU-Sim PTX:    immediate post dominator      @  PC=0x3c30 (_1.ptx:3319) ld.param.u64 %rl390, [_Z8wsm5_gpuPfS_S_S_S_S_S_S_S_S_S_S_S_S_S_fS_iiiiiiiiiiiiiiiiii_param_8];
GPGPU-Sim PTX: 98 (potential) branch divergence @  PC=0x3aa0 (_1.ptx:3235) bra.uni BB14_126;
GPGPU-Sim PTX:    immediate post dominator      @  PC=0x3c30 (_1.ptx:3319) ld.param.u64 %rl390, [_Z8wsm5_gpuPfS_S_S_S_S_S_S_S_S_S_S_S_S_S_fS_iiiiiiiiiiiiiiiiii_param_8];
GPGPU-Sim PTX: 99 (potential) branch divergence @  PC=0x3ba8 (_1.ptx:3289) @%p121 bra BB14_125;
GPGPU-Sim PTX:    immediate post dominator      @  PC=0x3c30 (_1.ptx:3319) ld.param.u64 %rl390, [_Z8wsm5_gpuPfS_S_S_S_S_S_S_S_S_S_S_S_S_S_fS_iiiiiiiiiiiiiiiiii_param_8];
GPGPU-Sim PTX: 100 (potential) branch divergence @  PC=0x3c10 (_1.ptx:3309) bra.uni BB14_126;
GPGPU-Sim PTX:    immediate post dominator      @  PC=0x3c30 (_1.ptx:3319) ld.param.u64 %rl390, [_Z8wsm5_gpuPfS_S_S_S_S_S_S_S_S_S_S_S_S_S_fS_iiiiiiiiiiiiiiiiii_param_8];
GPGPU-Sim PTX: 101 (potential) branch divergence @  PC=0x3c98 (_1.ptx:3344) @%p125 bra BB14_133;
GPGPU-Sim PTX:    immediate post dominator      @  PC=0x3f18 (_1.ptx:3511) mul.f64 %fd110, %fd1951, 0d3FD55555318ABC87;
GPGPU-Sim PTX: 102 (potential) branch divergence @  PC=0x3cb0 (_1.ptx:3350) @%p126 bra BB14_132;
GPGPU-Sim PTX:    immediate post dominator      @  PC=0x3f18 (_1.ptx:3511) mul.f64 %fd110, %fd1951, 0d3FD55555318ABC87;
GPGPU-Sim PTX: 103 (potential) branch divergence @  PC=0x3cc0 (_1.ptx:3354) @%p127 bra BB14_131;
GPGPU-Sim PTX:    immediate post dominator      @  PC=0x3f18 (_1.ptx:3511) mul.f64 %fd110, %fd1951, 0d3FD55555318ABC87;
GPGPU-Sim PTX: 104 (potential) branch divergence @  PC=0x3cd0 (_1.ptx:3358) @%p128 bra BB14_139;
GPGPU-Sim PTX:    immediate post dominator      @  PC=0x3f18 (_1.ptx:3511) mul.f64 %fd110, %fd1951, 0d3FD55555318ABC87;
GPGPU-Sim PTX: 105 (potential) branch divergence @  PC=0x3ce0 (_1.ptx:3361) bra.uni BB14_139;
GPGPU-Sim PTX:    immediate post dominator      @  PC=0x3f18 (_1.ptx:3511) mul.f64 %fd110, %fd1951, 0d3FD55555318ABC87;
GPGPU-Sim PTX: 106 (potential) branch divergence @  PC=0x3cf0 (_1.ptx:3366) bra.uni BB14_139;
GPGPU-Sim PTX:    immediate post dominator      @  PC=0x3f18 (_1.ptx:3511) mul.f64 %fd110, %fd1951, 0d3FD55555318ABC87;
GPGPU-Sim PTX: 107 (potential) branch divergence @  PC=0x3d00 (_1.ptx:3371) bra.uni BB14_139;
GPGPU-Sim PTX:    immediate post dominator      @  PC=0x3f18 (_1.ptx:3511) mul.f64 %fd110, %fd1951, 0d3FD55555318ABC87;
GPGPU-Sim PTX: 108 (potential) branch divergence @  PC=0x3d10 (_1.ptx:3376) @%p129 bra BB14_135;
GPGPU-Sim PTX:    immediate post dominator      @  PC=0x3d48 (_1.ptx:3398) shr.s32 %r531, %r1139, 20;
GPGPU-Sim PTX: 109 (potential) branch divergence @  PC=0x3d20 (_1.ptx:3379) bra.uni BB14_136;
GPGPU-Sim PTX:    immediate post dominator      @  PC=0x3d48 (_1.ptx:3398) shr.s32 %r531, %r1139, 20;
GPGPU-Sim PTX: 110 (potential) branch divergence @  PC=0x3d78 (_1.ptx:3407) @%p130 bra BB14_137;
GPGPU-Sim PTX:    immediate post dominator      @  PC=0x3db0 (_1.ptx:3429) add.f64 %fd917, %fd1937, 0d3FF0000000000000;
GPGPU-Sim PTX: 111 (potential) branch divergence @  PC=0x3d80 (_1.ptx:3408) bra.uni BB14_138;
GPGPU-Sim PTX:    immediate post dominator      @  PC=0x3db0 (_1.ptx:3429) add.f64 %fd917, %fd1937, 0d3FF0000000000000;
GPGPU-Sim PTX: 112 (potential) branch divergence @  PC=0x3f40 (_1.ptx:3522) @%p133 bra BB14_141;
GPGPU-Sim PTX:    immediate post dominator      @  PC=0x4108 (_1.ptx:3618) ld.global.f32 %f373, [%rl60];
GPGPU-Sim PTX: 113 (potential) branch divergence @  PC=0x3f78 (_1.ptx:3533) bra.uni BB14_144;
GPGPU-Sim PTX:    immediate post dominator      @  PC=0x4108 (_1.ptx:3618) ld.global.f32 %f373, [%rl60];
GPGPU-Sim PTX: 114 (potential) branch divergence @  PC=0x4080 (_1.ptx:3587) @%p136 bra BB14_143;
GPGPU-Sim PTX:    immediate post dominator      @  PC=0x4108 (_1.ptx:3618) ld.global.f32 %f373, [%rl60];
GPGPU-Sim PTX: 115 (potential) branch divergence @  PC=0x40e8 (_1.ptx:3607) bra.uni BB14_144;
GPGPU-Sim PTX:    immediate post dominator      @  PC=0x4108 (_1.ptx:3618) ld.global.f32 %f373, [%rl60];
GPGPU-Sim PTX: 116 (potential) branch divergence @  PC=0x4370 (_1.ptx:3726) @%p138 bra BB14_119;
GPGPU-Sim PTX:    immediate post dominator      @  PC=0x4378 (_1.ptx:3730) setp.gt.s32 %p139, %r1136, %r1135;
GPGPU-Sim PTX: 117 (potential) branch divergence @  PC=0x4380 (_1.ptx:3731) @%p139 bra BB14_148;
GPGPU-Sim PTX:    immediate post dominator      @  PC=0x43b8 (_1.ptx:3741) mov.f32 %f690, %f689;
GPGPU-Sim PTX: 118 (potential) branch divergence @  PC=0x43b0 (_1.ptx:3738) bra.uni BB14_113;
GPGPU-Sim PTX:    immediate post dominator      @  PC=0x3588 (_1.ptx:3003) mov.f32 %f680, %f687;
GPGPU-Sim PTX: 119 (potential) branch divergence @  PC=0x43f0 (_1.ptx:3750) @%p140 bra BB14_159;
GPGPU-Sim PTX:    immediate post dominator      @  PC=0x4878 (_1.ptx:3979) cvt.rn.f64.s32 %fd1080, %r1144;
GPGPU-Sim PTX: 120 (potential) branch divergence @  PC=0x44c8 (_1.ptx:3785) @%p141 bra BB14_152;
GPGPU-Sim PTX:    immediate post dominator      @  PC=0x47f0 (_1.ptx:3952) shl.b64 %rl244, %rl410, 2;
GPGPU-Sim PTX: 121 (potential) branch divergence @  PC=0x44e0 (_1.ptx:3790) bra.uni BB14_158;
GPGPU-Sim PTX:    immediate post dominator      @  PC=0x47f0 (_1.ptx:3952) shl.b64 %rl244, %rl410, 2;
GPGPU-Sim PTX: 122 (potential) branch divergence @  PC=0x45c8 (_1.ptx:3838) @%p144 bra BB14_154;
GPGPU-Sim PTX:    immediate post dominator      @  PC=0x4790 (_1.ptx:3934) mul.f64 %fd1075, %fd1939, 0d40CD1A0000000000;
GPGPU-Sim PTX: 123 (potential) branch divergence @  PC=0x4600 (_1.ptx:3849) bra.uni BB14_157;
GPGPU-Sim PTX:    immediate post dominator      @  PC=0x4790 (_1.ptx:3934) mul.f64 %fd1075, %fd1939, 0d40CD1A0000000000;
GPGPU-Sim PTX: 124 (potential) branch divergence @  PC=0x4708 (_1.ptx:3903) @%p147 bra BB14_156;
GPGPU-Sim PTX:    immediate post dominator      @  PC=0x4790 (_1.ptx:3934) mul.f64 %fd1075, %fd1939, 0d40CD1A0000000000;
GPGPU-Sim PTX: 125 (potential) branch divergence @  PC=0x4770 (_1.ptx:3923) bra.uni BB14_157;
GPGPU-Sim PTX:    immediate post dominator      @  PC=0x4790 (_1.ptx:3934) mul.f64 %fd1075, %fd1939, 0d40CD1A0000000000;
GPGPU-Sim PTX: 126 (potential) branch divergence @  PC=0x4860 (_1.ptx:3971) @%p149 bra BB14_150;
GPGPU-Sim PTX:    immediate post dominator      @  PC=0x4868 (_1.ptx:3972) bra.uni BB14_160;
GPGPU-Sim PTX: 127 (potential) branch divergence @  PC=0x4868 (_1.ptx:3972) bra.uni BB14_160;
GPGPU-Sim PTX:    immediate post dominator      @  PC=0x4878 (_1.ptx:3979) cvt.rn.f64.s32 %fd1080, %r1144;
GPGPU-Sim PTX: 128 (potential) branch divergence @  PC=0x4898 (_1.ptx:3984) @%p150 bra BB14_167;
GPGPU-Sim PTX:    immediate post dominator      @  PC=0x4c18 (_1.ptx:4151) add.ftz.f32 %f429, %f690, %f678;
GPGPU-Sim PTX: 129 (potential) branch divergence @  PC=0x4a70 (_1.ptx:4069) @%p7 bra BB14_165;
GPGPU-Sim PTX:    immediate post dominator      @  PC=0x4bf8 (_1.ptx:4143) setp.gt.s32 %p152, %r1145, %r1144;
GPGPU-Sim PTX: 130 (potential) branch divergence @  PC=0x4bf0 (_1.ptx:4139) @%p151 bra BB14_164;
GPGPU-Sim PTX:    immediate post dominator      @  PC=0x4bf8 (_1.ptx:4143) setp.gt.s32 %p152, %r1145, %r1144;
GPGPU-Sim PTX: 131 (potential) branch divergence @  PC=0x4c00 (_1.ptx:4144) @%p152 bra BB14_167;
GPGPU-Sim PTX:    immediate post dominator      @  PC=0x4c18 (_1.ptx:4151) add.ftz.f32 %f429, %f690, %f678;
GPGPU-Sim PTX: 132 (potential) branch divergence @  PC=0x4c10 (_1.ptx:4147) bra.uni BB14_162;
GPGPU-Sim PTX:    immediate post dominator      @  PC=0x4a00 (_1.ptx:4046) ld.global.f32 %f408, [%rl70];
GPGPU-Sim PTX: 133 (potential) branch divergence @  PC=0x4cf8 (_1.ptx:4188) @%p153 bra BB14_169;
GPGPU-Sim PTX:    immediate post dominator      @  PC=0x4eb0 (_1.ptx:4265) ld.param.u64 %rl409, [_Z8wsm5_gpuPfS_S_S_S_S_S_S_S_S_S_S_S_S_S_fS_iiiiiiiiiiiiiiiiii_param_14];
GPGPU-Sim PTX: 134 (potential) branch divergence @  PC=0x4f60 (_1.ptx:4294) @%p154 bra BB14_171;
GPGPU-Sim PTX:    immediate post dominator      @  PC=0x5120 (_1.ptx:4372) ld.param.u64 %rl406, [_Z8wsm5_gpuPfS_S_S_S_S_S_S_S_S_S_S_S_S_S_fS_iiiiiiiiiiiiiiiiii_param_12];
GPGPU-Sim PTX: 135 (potential) branch divergence @  PC=0x51c0 (_1.ptx:4399) @!%p8 bra BB14_173;
GPGPU-Sim PTX:    immediate post dominator      @  PC=0x5350 (_1.ptx:4472) ld.param.u32 %r1085, [_Z8wsm5_gpuPfS_S_S_S_S_S_S_S_S_S_S_S_S_S_fS_iiiiiiiiiiiiiiiiii_param_33];
GPGPU-Sim PTX: 136 (potential) branch divergence @  PC=0x5378 (_1.ptx:4478) @%p155 bra BB14_342;
GPGPU-Sim PTX:    immediate post dominator      @  PC=0x8c58 (_1.ptx:7553) add.s32 %r1131, %r1131, 1;
GPGPU-Sim PTX: 137 (potential) branch divergence @  PC=0x5568 (_1.ptx:4561) @%p156 bra BB14_178;
GPGPU-Sim PTX:    immediate post dominator      @  PC=0x55b8 (_1.ptx:4580) setp.leu.f64 %p158, %fd122, 0d4044000000000000;
GPGPU-Sim PTX: 138 (potential) branch divergence @  PC=0x5580 (_1.ptx:4565) @%p157 bra BB14_177;
GPGPU-Sim PTX:    immediate post dominator      @  PC=0x55b8 (_1.ptx:4580) setp.leu.f64 %p158, %fd122, 0d4044000000000000;
GPGPU-Sim PTX: 139 (potential) branch divergence @  PC=0x5588 (_1.ptx:4566) bra.uni BB14_178;
GPGPU-Sim PTX:    immediate post dominator      @  PC=0x55b8 (_1.ptx:4580) setp.leu.f64 %p158, %fd122, 0d4044000000000000;
GPGPU-Sim PTX: 140 (potential) branch divergence @  PC=0x55c0 (_1.ptx:4581) @%p158 bra BB14_181;
GPGPU-Sim PTX:    immediate post dominator      @  PC=0x5608 (_1.ptx:4598) ld.param.u64 %rl381, [_Z8wsm5_gpuPfS_S_S_S_S_S_S_S_S_S_S_S_S_S_fS_iiiiiiiiiiiiiiiiii_param_7];
GPGPU-Sim PTX: 141 (potential) branch divergence @  PC=0x55d8 (_1.ptx:4585) @%p159 bra BB14_180;
GPGPU-Sim PTX:    immediate post dominator      @  PC=0x5608 (_1.ptx:4598) ld.param.u64 %rl381, [_Z8wsm5_gpuPfS_S_S_S_S_S_S_S_S_S_S_S_S_S_fS_iiiiiiiiiiiiiiiiii_param_7];
GPGPU-Sim PTX: 142 (potential) branch divergence @  PC=0x55e0 (_1.ptx:4586) bra.uni BB14_181;
GPGPU-Sim PTX:    immediate post dominator      @  PC=0x5608 (_1.ptx:4598) ld.param.u64 %rl381, [_Z8wsm5_gpuPfS_S_S_S_S_S_S_S_S_S_S_S_S_S_fS_iiiiiiiiiiiiiiiiii_param_7];
GPGPU-Sim PTX: 143 (potential) branch divergence @  PC=0x5638 (_1.ptx:4606) @%p160 bra BB14_189;
GPGPU-Sim PTX:    immediate post dominator      @  PC=0x58d0 (_1.ptx:4748) shl.b64 %rl313, %rl76, 2;
GPGPU-Sim PTX: 144 (potential) branch divergence @  PC=0x5650 (_1.ptx:4610) @%p161 bra BB14_183;
GPGPU-Sim PTX:    immediate post dominator      @  PC=0x58d0 (_1.ptx:4748) shl.b64 %rl313, %rl76, 2;
GPGPU-Sim PTX: 145 (potential) branch divergence @  PC=0x5658 (_1.ptx:4611) bra.uni BB14_189;
GPGPU-Sim PTX:    immediate post dominator      @  PC=0x58d0 (_1.ptx:4748) shl.b64 %rl313, %rl76, 2;
GPGPU-Sim PTX: 146 (potential) branch divergence @  PC=0x5688 (_1.ptx:4626) @%p164 bra BB14_185;
GPGPU-Sim PTX:    immediate post dominator      @  PC=0x5850 (_1.ptx:4721) add.f64 %fd1154, %fd1940, 0dBFF0000000000000;
GPGPU-Sim PTX: 147 (potential) branch divergence @  PC=0x56c0 (_1.ptx:4637) bra.uni BB14_188;
GPGPU-Sim PTX:    immediate post dominator      @  PC=0x5850 (_1.ptx:4721) add.f64 %fd1154, %fd1940, 0dBFF0000000000000;
GPGPU-Sim PTX: 148 (potential) branch divergence @  PC=0x57c8 (_1.ptx:4691) @%p167 bra BB14_187;
GPGPU-Sim PTX:    immediate post dominator      @  PC=0x5850 (_1.ptx:4721) add.f64 %fd1154, %fd1940, 0dBFF0000000000000;
GPGPU-Sim PTX: 149 (potential) branch divergence @  PC=0x5830 (_1.ptx:4711) bra.uni BB14_188;
GPGPU-Sim PTX:    immediate post dominator      @  PC=0x5850 (_1.ptx:4721) add.f64 %fd1154, %fd1940, 0dBFF0000000000000;
GPGPU-Sim PTX: 150 (potential) branch divergence @  PC=0x58f0 (_1.ptx:4753) @!%p10 bra BB14_197;
GPGPU-Sim PTX:    immediate post dominator      @  PC=0x5bb8 (_1.ptx:4904) mul.f64 %fd138, %fd122, 0d3FBEB851EB851EB8;
GPGPU-Sim PTX: 151 (potential) branch divergence @  PC=0x5908 (_1.ptx:4757) @%p169 bra BB14_191;
GPGPU-Sim PTX:    immediate post dominator      @  PC=0x5bb8 (_1.ptx:4904) mul.f64 %fd138, %fd122, 0d3FBEB851EB851EB8;
GPGPU-Sim PTX: 152 (potential) branch divergence @  PC=0x5910 (_1.ptx:4758) bra.uni BB14_197;
GPGPU-Sim PTX:    immediate post dominator      @  PC=0x5bb8 (_1.ptx:4904) mul.f64 %fd138, %fd122, 0d3FBEB851EB851EB8;
GPGPU-Sim PTX: 153 (potential) branch divergence @  PC=0x5998 (_1.ptx:4788) @%p172 bra BB14_193;
GPGPU-Sim PTX:    immediate post dominator      @  PC=0x5b60 (_1.ptx:4883) add.f64 %fd1200, %fd1941, 0dBFF0000000000000;
GPGPU-Sim PTX: 154 (potential) branch divergence @  PC=0x59d0 (_1.ptx:4799) bra.uni BB14_196;
GPGPU-Sim PTX:    immediate post dominator      @  PC=0x5b60 (_1.ptx:4883) add.f64 %fd1200, %fd1941, 0dBFF0000000000000;
GPGPU-Sim PTX: 155 (potential) branch divergence @  PC=0x5ad8 (_1.ptx:4853) @%p175 bra BB14_195;
GPGPU-Sim PTX:    immediate post dominator      @  PC=0x5b60 (_1.ptx:4883) add.f64 %fd1200, %fd1941, 0dBFF0000000000000;
GPGPU-Sim PTX: 156 (potential) branch divergence @  PC=0x5b40 (_1.ptx:4873) bra.uni BB14_196;
GPGPU-Sim PTX:    immediate post dominator      @  PC=0x5b60 (_1.ptx:4883) add.f64 %fd1200, %fd1941, 0dBFF0000000000000;
GPGPU-Sim PTX: 157 (potential) branch divergence @  PC=0x5be0 (_1.ptx:4915) @%p179 bra BB14_199;
GPGPU-Sim PTX:    immediate post dominator      @  PC=0x5da8 (_1.ptx:5010) mov.f64 %fd1240, 0d40E86A0000000000;
GPGPU-Sim PTX: 158 (potential) branch divergence @  PC=0x5c18 (_1.ptx:4926) bra.uni BB14_202;
GPGPU-Sim PTX:    immediate post dominator      @  PC=0x5da8 (_1.ptx:5010) mov.f64 %fd1240, 0d40E86A0000000000;
GPGPU-Sim PTX: 159 (potential) branch divergence @  PC=0x5d20 (_1.ptx:4980) @%p182 bra BB14_201;
GPGPU-Sim PTX:    immediate post dominator      @  PC=0x5da8 (_1.ptx:5010) mov.f64 %fd1240, 0d40E86A0000000000;
GPGPU-Sim PTX: 160 (potential) branch divergence @  PC=0x5d88 (_1.ptx:5000) bra.uni BB14_202;
GPGPU-Sim PTX:    immediate post dominator      @  PC=0x5da8 (_1.ptx:5010) mov.f64 %fd1240, 0d40E86A0000000000;
GPGPU-Sim PTX: 161 (potential) branch divergence @  PC=0x5e38 (_1.ptx:5034) @%p184 bra BB14_204;
GPGPU-Sim PTX:    immediate post dominator      @  PC=0x6128 (_1.ptx:5193) mov.f32 %f113, %f703;
GPGPU-Sim PTX: 162 (potential) branch divergence @  PC=0x5e88 (_1.ptx:5051) bra.uni BB14_210;
GPGPU-Sim PTX:    immediate post dominator      @  PC=0x6128 (_1.ptx:5193) mov.f32 %f113, %f703;
GPGPU-Sim PTX: 163 (potential) branch divergence @  PC=0x5f20 (_1.ptx:5085) @%p187 bra BB14_206;
GPGPU-Sim PTX:    immediate post dominator      @  PC=0x60e8 (_1.ptx:5181) cvt.rn.ftz.f32.f64 %f702, %fd1943;
GPGPU-Sim PTX: 164 (potential) branch divergence @  PC=0x5f58 (_1.ptx:5096) bra.uni BB14_209;
GPGPU-Sim PTX:    immediate post dominator      @  PC=0x60e8 (_1.ptx:5181) cvt.rn.ftz.f32.f64 %f702, %fd1943;
GPGPU-Sim PTX: 165 (potential) branch divergence @  PC=0x6060 (_1.ptx:5150) @%p190 bra BB14_208;
GPGPU-Sim PTX:    immediate post dominator      @  PC=0x60e8 (_1.ptx:5181) cvt.rn.ftz.f32.f64 %f702, %fd1943;
GPGPU-Sim PTX: 166 (potential) branch divergence @  PC=0x60c8 (_1.ptx:5170) bra.uni BB14_209;
GPGPU-Sim PTX:    immediate post dominator      @  PC=0x60e8 (_1.ptx:5181) cvt.rn.ftz.f32.f64 %f702, %fd1943;
GPGPU-Sim PTX: 167 (potential) branch divergence @  PC=0x61a8 (_1.ptx:5211) @%p192 bra BB14_212;
GPGPU-Sim PTX:    immediate post dominator      @  PC=0x64d8 (_1.ptx:5379) mov.f32 %f125, %f707;
GPGPU-Sim PTX: 168 (potential) branch divergence @  PC=0x6218 (_1.ptx:5232) bra.uni BB14_218;
GPGPU-Sim PTX:    immediate post dominator      @  PC=0x64d8 (_1.ptx:5379) mov.f32 %f125, %f707;
GPGPU-Sim PTX: 169 (potential) branch divergence @  PC=0x62b8 (_1.ptx:5267) @%p195 bra BB14_214;
GPGPU-Sim PTX:    immediate post dominator      @  PC=0x6480 (_1.ptx:5363) cvt.rn.ftz.f32.f64 %f706, %fd1944;
GPGPU-Sim PTX: 170 (potential) branch divergence @  PC=0x62f0 (_1.ptx:5278) bra.uni BB14_217;
GPGPU-Sim PTX:    immediate post dominator      @  PC=0x6480 (_1.ptx:5363) cvt.rn.ftz.f32.f64 %f706, %fd1944;
GPGPU-Sim PTX: 171 (potential) branch divergence @  PC=0x63f8 (_1.ptx:5332) @%p198 bra BB14_216;
GPGPU-Sim PTX:    immediate post dominator      @  PC=0x6480 (_1.ptx:5363) cvt.rn.ftz.f32.f64 %f706, %fd1944;
GPGPU-Sim PTX: 172 (potential) branch divergence @  PC=0x6460 (_1.ptx:5352) bra.uni BB14_217;
GPGPU-Sim PTX:    immediate post dominator      @  PC=0x6480 (_1.ptx:5363) cvt.rn.ftz.f32.f64 %f706, %fd1944;
GPGPU-Sim PTX: 173 (potential) branch divergence @  PC=0x65c0 (_1.ptx:5426) @%p11 bra BB14_220;
GPGPU-Sim PTX:    immediate post dominator      @  PC=0x6788 (_1.ptx:5521) ld.param.u64 %rl389, [_Z8wsm5_gpuPfS_S_S_S_S_S_S_S_S_S_S_S_S_S_fS_iiiiiiiiiiiiiiiiii_param_8];
GPGPU-Sim PTX: 174 (potential) branch divergence @  PC=0x65f8 (_1.ptx:5437) bra.uni BB14_223;
GPGPU-Sim PTX:    immediate post dominator      @  PC=0x6788 (_1.ptx:5521) ld.param.u64 %rl389, [_Z8wsm5_gpuPfS_S_S_S_S_S_S_S_S_S_S_S_S_S_fS_iiiiiiiiiiiiiiiiii_param_8];
GPGPU-Sim PTX: 175 (potential) branch divergence @  PC=0x6700 (_1.ptx:5491) @%p204 bra BB14_222;
GPGPU-Sim PTX:    immediate post dominator      @  PC=0x6788 (_1.ptx:5521) ld.param.u64 %rl389, [_Z8wsm5_gpuPfS_S_S_S_S_S_S_S_S_S_S_S_S_S_fS_iiiiiiiiiiiiiiiiii_param_8];
GPGPU-Sim PTX: 176 (potential) branch divergence @  PC=0x6768 (_1.ptx:5511) bra.uni BB14_223;
GPGPU-Sim PTX:    immediate post dominator      @  PC=0x6788 (_1.ptx:5521) ld.param.u64 %rl389, [_Z8wsm5_gpuPfS_S_S_S_S_S_S_S_S_S_S_S_S_S_fS_iiiiiiiiiiiiiiiiii_param_8];
GPGPU-Sim PTX: 177 (potential) branch divergence @  PC=0x6800 (_1.ptx:5543) @%p11 bra BB14_225;
GPGPU-Sim PTX:    immediate post dominator      @  PC=0x69c8 (_1.ptx:5639) mul.f64 %fd1418, %fd1946, 0d3F170D8DB22FBD88;
GPGPU-Sim PTX: 178 (potential) branch divergence @  PC=0x6838 (_1.ptx:5554) bra.uni BB14_228;
GPGPU-Sim PTX:    immediate post dominator      @  PC=0x69c8 (_1.ptx:5639) mul.f64 %fd1418, %fd1946, 0d3F170D8DB22FBD88;
GPGPU-Sim PTX: 179 (potential) branch divergence @  PC=0x6940 (_1.ptx:5608) @%p208 bra BB14_227;
GPGPU-Sim PTX:    immediate post dominator      @  PC=0x69c8 (_1.ptx:5639) mul.f64 %fd1418, %fd1946, 0d3F170D8DB22FBD88;
GPGPU-Sim PTX: 180 (potential) branch divergence @  PC=0x69a8 (_1.ptx:5628) bra.uni BB14_228;
GPGPU-Sim PTX:    immediate post dominator      @  PC=0x69c8 (_1.ptx:5639) mul.f64 %fd1418, %fd1946, 0d3F170D8DB22FBD88;
GPGPU-Sim PTX: 181 (potential) branch divergence @  PC=0x69f8 (_1.ptx:5648) @%p11 bra BB14_230;
GPGPU-Sim PTX:    immediate post dominator      @  PC=0x6bc0 (_1.ptx:5744) mul.f64 %fd1457, %fd1947, 0d3F170D8DB22FBD88;
GPGPU-Sim PTX: 182 (potential) branch divergence @  PC=0x6a30 (_1.ptx:5659) bra.uni BB14_233;
GPGPU-Sim PTX:    immediate post dominator      @  PC=0x6bc0 (_1.ptx:5744) mul.f64 %fd1457, %fd1947, 0d3F170D8DB22FBD88;
GPGPU-Sim PTX: 183 (potential) branch divergence @  PC=0x6b38 (_1.ptx:5713) @%p212 bra BB14_232;
GPGPU-Sim PTX:    immediate post dominator      @  PC=0x6bc0 (_1.ptx:5744) mul.f64 %fd1457, %fd1947, 0d3F170D8DB22FBD88;
GPGPU-Sim PTX: 184 (potential) branch divergence @  PC=0x6ba0 (_1.ptx:5733) bra.uni BB14_233;
GPGPU-Sim PTX:    immediate post dominator      @  PC=0x6bc0 (_1.ptx:5744) mul.f64 %fd1457, %fd1947, 0d3F170D8DB22FBD88;
GPGPU-Sim PTX: 185 (potential) branch divergence @  PC=0x6c00 (_1.ptx:5763) @%p216 bra BB14_241;
GPGPU-Sim PTX:    immediate post dominator      @  PC=0x6ea8 (_1.ptx:5936) mov.f64 %fd188, %fd1950;
GPGPU-Sim PTX: 186 (potential) branch divergence @  PC=0x6c18 (_1.ptx:5769) @%p217 bra BB14_240;
GPGPU-Sim PTX:    immediate post dominator      @  PC=0x6ea8 (_1.ptx:5936) mov.f64 %fd188, %fd1950;
GPGPU-Sim PTX: 187 (potential) branch divergence @  PC=0x6c28 (_1.ptx:5773) @%p218 bra BB14_239;
GPGPU-Sim PTX:    immediate post dominator      @  PC=0x6ea8 (_1.ptx:5936) mov.f64 %fd188, %fd1950;
GPGPU-Sim PTX: 188 (potential) branch divergence @  PC=0x6c38 (_1.ptx:5777) @%p219 bra BB14_238;
GPGPU-Sim PTX:    immediate post dominator      @  PC=0x6ea8 (_1.ptx:5936) mov.f64 %fd188, %fd1950;
GPGPU-Sim PTX: 189 (potential) branch divergence @  PC=0x6c48 (_1.ptx:5780) bra.uni BB14_247;
GPGPU-Sim PTX:    immediate post dominator      @  PC=0x6ea8 (_1.ptx:5936) mov.f64 %fd188, %fd1950;
GPGPU-Sim PTX: 190 (potential) branch divergence @  PC=0x6c58 (_1.ptx:5784) bra.uni BB14_247;
GPGPU-Sim PTX:    immediate post dominator      @  PC=0x6ea8 (_1.ptx:5936) mov.f64 %fd188, %fd1950;
GPGPU-Sim PTX: 191 (potential) branch divergence @  PC=0x6c70 (_1.ptx:5790) bra.uni BB14_247;
GPGPU-Sim PTX:    immediate post dominator      @  PC=0x6ea8 (_1.ptx:5936) mov.f64 %fd188, %fd1950;
GPGPU-Sim PTX: 192 (potential) branch divergence @  PC=0x6c88 (_1.ptx:5796) bra.uni BB14_247;
GPGPU-Sim PTX:    immediate post dominator      @  PC=0x6ea8 (_1.ptx:5936) mov.f64 %fd188, %fd1950;
GPGPU-Sim PTX: 193 (potential) branch divergence @  PC=0x6c98 (_1.ptx:5801) @%p220 bra BB14_243;
GPGPU-Sim PTX:    immediate post dominator      @  PC=0x6cd0 (_1.ptx:5823) shr.s32 %r893, %r1148, 20;
GPGPU-Sim PTX: 194 (potential) branch divergence @  PC=0x6ca8 (_1.ptx:5804) bra.uni BB14_244;
GPGPU-Sim PTX:    immediate post dominator      @  PC=0x6cd0 (_1.ptx:5823) shr.s32 %r893, %r1148, 20;
GPGPU-Sim PTX: 195 (potential) branch divergence @  PC=0x6d00 (_1.ptx:5832) @%p221 bra BB14_245;
GPGPU-Sim PTX:    immediate post dominator      @  PC=0x6d38 (_1.ptx:5854) add.f64 %fd1461, %fd1948, 0d3FF0000000000000;
GPGPU-Sim PTX: 196 (potential) branch divergence @  PC=0x6d08 (_1.ptx:5833) bra.uni BB14_246;
GPGPU-Sim PTX:    immediate post dominator      @  PC=0x6d38 (_1.ptx:5854) add.f64 %fd1461, %fd1948, 0d3FF0000000000000;
GPGPU-Sim PTX: 197 (potential) branch divergence @  PC=0x6ed8 (_1.ptx:5949) @%p224 bra BB14_249;
GPGPU-Sim PTX:    immediate post dominator      @  PC=0x70a0 (_1.ptx:6045) ld.global.f32 %f129, [%rl411];
GPGPU-Sim PTX: 198 (potential) branch divergence @  PC=0x6f10 (_1.ptx:5960) bra.uni BB14_252;
GPGPU-Sim PTX:    immediate post dominator      @  PC=0x70a0 (_1.ptx:6045) ld.global.f32 %f129, [%rl411];
GPGPU-Sim PTX: 199 (potential) branch divergence @  PC=0x7018 (_1.ptx:6014) @%p227 bra BB14_251;
GPGPU-Sim PTX:    immediate post dominator      @  PC=0x70a0 (_1.ptx:6045) ld.global.f32 %f129, [%rl411];
GPGPU-Sim PTX: 200 (potential) branch divergence @  PC=0x7080 (_1.ptx:6034) bra.uni BB14_252;
GPGPU-Sim PTX:    immediate post dominator      @  PC=0x70a0 (_1.ptx:6045) ld.global.f32 %f129, [%rl411];
GPGPU-Sim PTX: 201 (potential) branch divergence @  PC=0x7130 (_1.ptx:6074) @%p229 bra BB14_254;
GPGPU-Sim PTX:    immediate post dominator      @  PC=0x7370 (_1.ptx:6202) setp.gt.f64 %p237, %fd1244, 0d3E112E0BE826D695;
GPGPU-Sim PTX: 202 (potential) branch divergence @  PC=0x7140 (_1.ptx:6077) bra.uni BB14_260;
GPGPU-Sim PTX:    immediate post dominator      @  PC=0x7370 (_1.ptx:6202) setp.gt.f64 %p237, %fd1244, 0d3E112E0BE826D695;
GPGPU-Sim PTX: 203 (potential) branch divergence @  PC=0x7188 (_1.ptx:6097) @%p232 bra BB14_256;
GPGPU-Sim PTX:    immediate post dominator      @  PC=0x7350 (_1.ptx:6193) mul.f64 %fd1583, %fd45, %fd1953;
GPGPU-Sim PTX: 204 (potential) branch divergence @  PC=0x71c0 (_1.ptx:6108) bra.uni BB14_259;
GPGPU-Sim PTX:    immediate post dominator      @  PC=0x7350 (_1.ptx:6193) mul.f64 %fd1583, %fd45, %fd1953;
GPGPU-Sim PTX: 205 (potential) branch divergence @  PC=0x72c8 (_1.ptx:6162) @%p235 bra BB14_258;
GPGPU-Sim PTX:    immediate post dominator      @  PC=0x7350 (_1.ptx:6193) mul.f64 %fd1583, %fd45, %fd1953;
GPGPU-Sim PTX: 206 (potential) branch divergence @  PC=0x7330 (_1.ptx:6182) bra.uni BB14_259;
GPGPU-Sim PTX:    immediate post dominator      @  PC=0x7350 (_1.ptx:6193) mul.f64 %fd1583, %fd45, %fd1953;
GPGPU-Sim PTX: 207 (potential) branch divergence @  PC=0x73a0 (_1.ptx:6209) @%p239 bra BB14_262;
GPGPU-Sim PTX:    immediate post dominator      @  PC=0x7418 (_1.ptx:6235) setp.gt.f64 %p240, %fd1244, 0d0000000000000000;
GPGPU-Sim PTX: 208 (potential) branch divergence @  PC=0x73b0 (_1.ptx:6212) bra.uni BB14_263;
GPGPU-Sim PTX:    immediate post dominator      @  PC=0x7418 (_1.ptx:6235) setp.gt.f64 %p240, %fd1244, 0d0000000000000000;
GPGPU-Sim PTX: 209 (potential) branch divergence @  PC=0x7438 (_1.ptx:6240) @%p240 bra BB14_265;
GPGPU-Sim PTX:    immediate post dominator      @  PC=0x7538 (_1.ptx:6296) sub.f64 %fd1607, %fd196, %fd170;
GPGPU-Sim PTX: 210 (potential) branch divergence @  PC=0x7448 (_1.ptx:6243) bra.uni BB14_268;
GPGPU-Sim PTX:    immediate post dominator      @  PC=0x7538 (_1.ptx:6296) sub.f64 %fd1607, %fd196, %fd170;
GPGPU-Sim PTX: 211 (potential) branch divergence @  PC=0x74e0 (_1.ptx:6272) @%p241 bra BB14_267;
GPGPU-Sim PTX:    immediate post dominator      @  PC=0x7538 (_1.ptx:6296) sub.f64 %fd1607, %fd196, %fd170;
GPGPU-Sim PTX: 212 (potential) branch divergence @  PC=0x7500 (_1.ptx:6279) bra.uni BB14_268;
GPGPU-Sim PTX:    immediate post dominator      @  PC=0x7538 (_1.ptx:6296) sub.f64 %fd1607, %fd196, %fd170;
GPGPU-Sim PTX: 213 (potential) branch divergence @  PC=0x7608 (_1.ptx:6340) @%p244 bra BB14_270;
GPGPU-Sim PTX:    immediate post dominator      @  PC=0x77d0 (_1.ptx:6436) cvt.rn.ftz.f32.f64 %f143, %fd1954;
GPGPU-Sim PTX: 214 (potential) branch divergence @  PC=0x7640 (_1.ptx:6351) bra.uni BB14_273;
GPGPU-Sim PTX:    immediate post dominator      @  PC=0x77d0 (_1.ptx:6436) cvt.rn.ftz.f32.f64 %f143, %fd1954;
GPGPU-Sim PTX: 215 (potential) branch divergence @  PC=0x7748 (_1.ptx:6405) @%p247 bra BB14_272;
GPGPU-Sim PTX:    immediate post dominator      @  PC=0x77d0 (_1.ptx:6436) cvt.rn.ftz.f32.f64 %f143, %fd1954;
GPGPU-Sim PTX: 216 (potential) branch divergence @  PC=0x77b0 (_1.ptx:6425) bra.uni BB14_273;
GPGPU-Sim PTX:    immediate post dominator      @  PC=0x77d0 (_1.ptx:6436) cvt.rn.ftz.f32.f64 %f143, %fd1954;
GPGPU-Sim PTX: 217 (potential) branch divergence @  PC=0x77e8 (_1.ptx:6441) @%p250 bra BB14_275;
GPGPU-Sim PTX:    immediate post dominator      @  PC=0x7870 (_1.ptx:6467) setp.gt.ftz.f32 %p251, %f76, 0f00000000;
GPGPU-Sim PTX: 218 (potential) branch divergence @  PC=0x77f8 (_1.ptx:6444) bra.uni BB14_276;
GPGPU-Sim PTX:    immediate post dominator      @  PC=0x7870 (_1.ptx:6467) setp.gt.ftz.f32 %p251, %f76, 0f00000000;
GPGPU-Sim PTX: 219 (potential) branch divergence @  PC=0x7878 (_1.ptx:6468) @%p251 bra BB14_278;
GPGPU-Sim PTX:    immediate post dominator      @  PC=0x8270 (_1.ptx:7002) @%p9 bra BB14_311;
GPGPU-Sim PTX: 220 (potential) branch divergence @  PC=0x78a8 (_1.ptx:6475) bra.uni BB14_309;
GPGPU-Sim PTX:    immediate post dominator      @  PC=0x8270 (_1.ptx:7002) @%p9 bra BB14_311;
GPGPU-Sim PTX: 221 (potential) branch divergence @  PC=0x78c0 (_1.ptx:6482) @%p253 bra BB14_280;
GPGPU-Sim PTX:    immediate post dominator      @  PC=0x7a28 (_1.ptx:6546) add.u64 %rl350, %SP, 336;
GPGPU-Sim PTX: 222 (potential) branch divergence @  PC=0x78d0 (_1.ptx:6485) bra.uni BB14_281;
GPGPU-Sim PTX:    immediate post dominator      @  PC=0x7a28 (_1.ptx:6546) add.u64 %rl350, %SP, 336;
GPGPU-Sim PTX: 223 (potential) branch divergence @  PC=0x7a48 (_1.ptx:6551) @%p254 bra BB14_283;
GPGPU-Sim PTX:    immediate post dominator      @  PC=0x7bb0 (_1.ptx:6630) mov.u32 %r1152, %r1154;
GPGPU-Sim PTX: 224 (potential) branch divergence @  PC=0x7a60 (_1.ptx:6555) bra.uni BB14_287;
GPGPU-Sim PTX:    immediate post dominator      @  PC=0x7bb0 (_1.ptx:6630) mov.u32 %r1152, %r1154;
GPGPU-Sim PTX: 225 (potential) branch divergence @  PC=0x7b18 (_1.ptx:6592) @%p255 bra BB14_285;
GPGPU-Sim PTX:    immediate post dominator      @  PC=0x7b80 (_1.ptx:6621) add.ftz.f32 %f543, %f715, %f711;
GPGPU-Sim PTX: 226 (potential) branch divergence @  PC=0x7b40 (_1.ptx:6602) bra.uni BB14_286;
GPGPU-Sim PTX:    immediate post dominator      @  PC=0x7b80 (_1.ptx:6621) add.ftz.f32 %f543, %f715, %f711;
GPGPU-Sim PTX: 227 (potential) branch divergence @  PC=0x7bd8 (_1.ptx:6637) @%p259 bra BB14_289;
GPGPU-Sim PTX:    immediate post dominator      @  PC=0x7d58 (_1.ptx:6719) setp.ne.s32 %p262, %r1153, 1;
GPGPU-Sim PTX: 228 (potential) branch divergence @  PC=0x7be8 (_1.ptx:6640) bra.uni BB14_293;
GPGPU-Sim PTX:    immediate post dominator      @  PC=0x7d58 (_1.ptx:6719) setp.ne.s32 %p262, %r1153, 1;
GPGPU-Sim PTX: 229 (potential) branch divergence @  PC=0x7ca0 (_1.ptx:6674) @%p260 bra BB14_291;
GPGPU-Sim PTX:    immediate post dominator      @  PC=0x7d20 (_1.ptx:6706) add.ftz.f32 %f555, %f715, %f711;
[...]
mf_lat_table:0 	0 	0 	0 	0 	0 	0 	620203 	1329409 	38036 	12 	0 	0 	0 	0 	0 	0 	0 	0 	0 	0 	0 	0 	0 	0 	0 	0 	0 	0 	0 	0 	0 	
icnt2mem_lat_table:0 	0 	0 	1702871 	527460 	244081 	88066 	45159 	24326 	426 	0 	0 	0 	0 	0 	0 	0 	0 	0 	0 	0 	0 	0 	0 	
icnt2sh_lat_table:0 	0 	0 	398680 	572237 	299738 	36604 	253 	0 	0 	0 	0 	132 	969 	2179 	20414 	25491 	27271 	83423 	81806 	140754 	279432 	18277 	0 	
mf_lat_pw_table:0 	0 	0 	0 	0 	0 	0 	3766 	5819 	0 	0 	0 	0 	0 	0 	0 	0 	0 	0 	0 	0 	0 	0 	0 	0 	0 	0 	0 	0 	0 	0 	0 	
maximum concurrent accesses to same row:
dram[0]:        32        22        46        38        34        30        38        34        26        20        36        40        26        30        20        22 
dram[1]:        36        28        26        22        44        42        24        44        34        36        46        34        38        30        24        28 
dram[2]:        38        18        16        24        42        32        26        20        44        48        28        30        40        46        28        30 
dram[3]:        36        20        20        22        30        36        32        28        54        56        20        42        44        48        20        22 
dram[4]:        28        32        20        20        14        28        30        44        40        40        30        34        34        40        40        30 
dram[5]:        20        24        28        28        14        20        30        26        24        26        42        40        30        18        30        20 
maximum service time to same row:
dram[0]:     69836     56200     38841     33290     42287     39295     55206     71366     68705     41689     50805     72872     38825     59587     57216     41931 
dram[1]:     22337     36678     29469     39297     39547     25407     26753     35287     31382     25822     23707     46786     28962     32823     45529     26221 
dram[2]:     63500     52459     68997    103021     74901     55622     69906     71254     42364     73737     57757     73924     78689     83105     67821     48906 
dram[3]:     53323     39370     52842     59650     64538     57059     51392     28175     51193     55647     49011     69067     78031     65640     48571     34424 
dram[4]:     28771     20608     28871     29109     23260     27957     25668     31261     24330     31696     24075     26285     36137     24910     44387     21928 
dram[5]:     62352     70797     67800     49887     54275     39213     61351     65997     51863     79837     52811     52809     36094     64156     67245     42931 
average row accesses per activate:
dram[0]:  1.777113  1.750407  1.723010  1.715337  1.710087  1.716807  1.743307  1.742239  1.777946  1.755448  1.745356  1.739744  1.745955  1.759840  1.764491  1.751220 
dram[1]:  1.756163  1.730848  1.684494  1.693109  1.691128  1.702650  1.727363  1.726032  1.758547  1.747331  1.723258  1.738335  1.756359  1.750046  1.752016  1.733994 
dram[2]:  1.756490  1.749811  1.702057  1.707844  1.704886  1.718202  1.743515  1.736809  1.773509  1.767442  1.735833  1.734986  1.764662  1.761153  1.747040  1.744058 
dram[3]:  1.761128  1.767134  1.710777  1.724560  1.705000  1.707022  1.739945  1.728706  1.760008  1.754047  1.737764  1.748051  1.767657  1.761509  1.742450  1.746792 
dram[4]:  1.741464  1.751215  1.694523  1.708922  1.706222  1.696050  1.727886  1.708737  1.741003  1.739823  1.729437  1.726098  1.735663  1.744500  1.723953  1.725741 
dram[5]:  1.738891  1.741985  1.717491  1.718254  1.709276  1.708872  1.753058  1.726658  1.760583  1.757172  1.736974  1.726973  1.746527  1.764953  1.747049  1.750461 
average row locality = 1806657/1040700 = 1.736002
number of total memory accesses made:
dram[0]:         0         0         0         0         0         0         0         0         0         0         0         0         0         0         0         0 
dram[1]:         0         0         0         0         0         0         0         0         0         0         0         0         0         0         0         0 
dram[2]:         0         0         0         0         0         0         0         0         0         0         0         0         0         0         0         0 
dram[3]:         0         0         0         0         0         0         0         0         0         0         0         0         0         0         0         0 
dram[4]:         0         0         0         0         0         0         0         0         0         0         0         0         0         0         0         0 
dram[5]:         0         0         0         0         0         0         0         0         0         0         0         0         0         0         0         0 
total accesses: 0
min_bank_accesses = 0!
min_chip_accesses = 0!
number of total read accesses:
dram[0]:     12403     12466     12649     12685     13341     13270     12328     12306     12581     12646     12466     12481     12620     12684     12173     12212 
dram[1]:     12521     12674     12844     12835     13395     13487     12551     12563     12593     12722     12520     12481     12723     12861     12333     12299 
dram[2]:     12543     12667     12914     12875     13430     13378     12508     12642     12713     12702     12529     12590     12708     12822     12466     12370 
dram[3]:     12552     12617     12736     12660     13253     13240     12409     12488     12654     12657     12626     12582     12625     12701     12392     12293 
dram[4]:     12660     12561     12684     12738     13328     13330     12426     12371     12695     12757     12593     12625     12741     12656     12258     12212 
dram[5]:     12553     12506     12792     12752     13219     13387     12399     12400     12768     12593     12486     12617     12698     12737     12347     12349 
total reads: 1216293
bank skew: 13487/12173 = 1.11
chip skew: 203857/201311 = 1.01
number of total write accesses:
dram[0]:      5720      5796      5944      5971      6443      6475      6491      6552      6251      6204      6232      6263      6156      6229      5666      5724 
dram[1]:      5787      5853      5928      6011      6447      6497      6659      6665      6285      6261      6329      6333      6265      6358      5704      5712 
dram[2]:      5793      5825      6035      6024      6391      6493      6580      6614      6260      6222      6218      6304      6188      6246      5684      5681 
dram[3]:      5806      5793      5932      5948      6421      6500      6539      6488      6252      6199      6227      6255      6121      6163      5726      5678 
dram[4]:      5803      5811      5971      6014      6471      6507      6541      6502      6268      6261      6225      6350      6235      6216      5728      5715 
dram[5]:      5761      5750      5963      5989      6424      6453      6520      6481      6197      6149      6216      6264      6161      6208      5707      5686 
total reads: 590364
bank skew: 6665/5666 = 1.18
chip skew: 99094/97929 = 1.01
average mf latency per bank:
dram[0]:        301       300       305       306       295       297       296       296       302       305       307       308       304       304       310       309
dram[1]:        299       301       305       306       296       296       296       298       303       305       306       308       304       303       308       309
dram[2]:        301       303       303       308       295       297       296       298       303       306       304       308       303       305       309       313
dram[3]:        302       302       308       307       300       298       300       300       306       308       310       311       308       307       313       312
dram[4]:        297       302       300       305       293       297       294       297       301       305       303       306       303       307       306       310
dram[5]:        301       300       304       304       296       295       297       299       306       307       308       308       308       307       310       310
maximum mf latency per bank:
dram[0]:        895       850       955      1085       947       970       916       920      1027       941       939       908       968       892       925       918
dram[1]:        908       904       922       926      1074       857       931       894       928       984       927       980      1008       986       871       857
dram[2]:        831       875       874       862       886       847       903       853       794       917       876       941       953       940       812       880
dram[3]:       1031       867       969       867       927       913      1164       981       958       978       958       948       930       829       897       877
dram[4]:        906       912      1012      1005       826       888       813       886       858       895       762       883       813       840       849       898
dram[5]:        993      1021      1082       983       842       825       936       957       917       837       889       848       931       964       919       868

Number of Memory Banks Accessed per Memory Operation per Warp (from 0):
0	0	0	0	0	0	0	0	0	0	0	0	0	0	0	0	0	0	0	0	0	0	0	0	0	0	0	0	0	0	0	0	0	0	0	0	0	0	0	0	0	0	0	0	0	0	0	0	0	0	0	0	0	0	0	0	0	0	0	0	0	0	0	0	0	0	0	0	0	0	0	0	0	0	0	0	0	0	0	0	0	0	0	0	0	0	0	0	0	0	0	0	0	0	0	0	
Average # of Memory Banks Accessed per Memory Operation per Warp=-nan

position of mrq chosen
0	0	0	0	0	0	0	0	0	0	0	0	0	0	0	0	

average position of mrq chosen = -nan
Memory Partition 0: 
Cache L2_bank_000:
MSHR contents

Cache L2_bank_001:
MSHR contents

In Dram Latency Queue (total = 0): 
DRAM[0]: 16 bks, busW=4 BL=8 CL=12, tRRD=2 tCCD=6, tRCD=12 tRAS=28 tRP=12 tRC=40
n_cmd=6410305 n_nop=5488807 n_act=171673 n_pre=171657 n_req=299428 n_rd=402622 n_write=175546 bw_util=0.1804
n_activity=3567081 dram_eff=0.3242
bk0: 24806a 5885328i bk1: 24932a 5865129i bk2: 25298a 5857919i bk3: 25370a 5838427i bk4: 26682a 5827739i bk5: 26540a 5810880i bk6: 24656a 5842406i bk7: 24612a 5829110i bk8: 25162a 5860020i bk9: 25292a 5840780i bk10: 24932a 5846336i bk11: 24962a 5830299i bk12: 25240a 5855101i bk13: 25368a 5840576i bk14: 24346a 5881210i bk15: 24424a 5864149i 
dram_util_bins: 0 0 0 0 0 0 0 0 0 0
dram_eff_bins: 0 0 0 0 0 0 0 0 0 0
mrqq: max=16 avg=0.921982
Memory Partition 1: 
Cache L2_bank_002:
MSHR contents

Cache L2_bank_003:
MSHR contents

In Dram Latency Queue (total = 0): 
DRAM[1]: 16 bks, busW=4 BL=8 CL=12, tRRD=2 tCCD=6, tRCD=12 tRAS=28 tRP=12 tRC=40
n_cmd=6410305 n_nop=5476410 n_act=174984 n_pre=174968 n_req=302496 n_rd=406804 n_write=177139 bw_util=0.1822
n_activity=3643279 dram_eff=0.3206
bk0: 25042a 5881637i bk1: 25348a 5857620i bk2: 25688a 5847114i bk3: 25670a 5833273i bk4: 26790a 5824236i bk5: 26974a 5804741i bk6: 25102a 5830555i bk7: 25126a 5815304i bk8: 25186a 5855666i bk9: 25444a 5836257i bk10: 25040a 5840856i bk11: 24962a 5834617i bk12: 25446a 5853732i bk13: 25722a 5830842i bk14: 24666a 5875881i bk15: 24598a 5861530i 
dram_util_bins: 0 0 0 0 0 0 0 0 0 0
dram_eff_bins: 0 0 0 0 0 0 0 0 0 0
mrqq: max=16 avg=0.911767
Memory Partition 2: 
Cache L2_bank_004:
MSHR contents

Cache L2_bank_005:
MSHR contents

In Dram Latency Queue (total = 0): 
DRAM[2]: 16 bks, busW=4 BL=8 CL=12, tRRD=2 tCCD=6, tRCD=12 tRAS=28 tRP=12 tRC=40
n_cmd=6410305 n_nop=5478934 n_act=173811 n_pre=173795 n_req=302415 n_rd=407714 n_write=176051 bw_util=0.1821
n_activity=3604970 dram_eff=0.3239
bk0: 25086a 5879208i bk1: 25334a 5858284i bk2: 25828a 5842890i bk3: 25750a 5834037i bk4: 26860a 5824246i bk5: 26756a 5808337i bk6: 25016a 5832679i bk7: 25284a 5813471i bk8: 25426a 5852934i bk9: 25404a 5835645i bk10: 25058a 5845428i bk11: 25180a 5826039i bk12: 25416a 5854006i bk13: 25644a 5835415i bk14: 24932a 5871859i bk15: 24740a 5858374i 
dram_util_bins: 0 0 0 0 0 0 0 0 0 0
dram_eff_bins: 0 0 0 0 0 0 0 0 0 0
mrqq: max=16 avg=0.916905
Memory Partition 3: 
Cache L2_bank_006:
MSHR contents

Cache L2_bank_007:
MSHR contents

In Dram Latency Queue (total = 0): 
DRAM[3]: 16 bks, busW=4 BL=8 CL=12, tRRD=2 tCCD=6, tRCD=12 tRAS=28 tRP=12 tRC=40
n_cmd=6410305 n_nop=5484741 n_act=172635 n_pre=172619 n_req=300533 n_rd=404970 n_write=175340 bw_util=0.1811
n_activity=3585316 dram_eff=0.3237
bk0: 25104a 5878274i bk1: 25234a 5863886i bk2: 25472a 5856081i bk3: 25320a 5842215i bk4: 26506a 5828739i bk5: 26480a 5811955i bk6: 24818a 5837220i bk7: 24976a 5821046i bk8: 25308a 5855175i bk9: 25314a 5839956i bk10: 25252a 5847591i bk11: 25164a 5831407i bk12: 25250a 5861757i bk13: 25402a 5840821i bk14: 24784a 5871062i bk15: 24586a 5864962i 
dram_util_bins: 0 0 0 0 0 0 0 0 0 0
dram_eff_bins: 0 0 0 0 0 0 0 0 0 0
mrqq: max=16 avg=0.917861
Memory Partition 4: 
Cache L2_bank_008:
MSHR contents

Cache L2_bank_009:
MSHR contents

In Dram Latency Queue (total = 0): 
DRAM[4]: 16 bks, busW=4 BL=8 CL=12, tRRD=2 tCCD=6, tRCD=12 tRAS=28 tRP=12 tRC=40
n_cmd=6410305 n_nop=5479321 n_act=174667 n_pre=174651 n_req=301253 n_rd=405270 n_write=176396 bw_util=0.1815
n_activity=3638283 dram_eff=0.3197
bk0: 25320a 5874508i bk1: 25122a 5867913i bk2: 25368a 5851223i bk3: 25476a 5837194i bk4: 26656a 5825677i bk5: 26660a 5809031i bk6: 24852a 5837920i bk7: 24742a 5823374i bk8: 25390a 5851036i bk9: 25514a 5835063i bk10: 25186a 5846288i bk11: 25250a 5824860i bk12: 25482a 5849786i bk13: 25312a 5839947i bk14: 24516a 5871485i bk15: 24424a 5858218i 
dram_util_bins: 0 0 0 0 0 0 0 0 0 0
dram_eff_bins: 0 0 0 0 0 0 0 0 0 0
mrqq: max=16 avg=0.906831
Memory Partition 5: 
Cache L2_bank_010:
MSHR contents

Cache L2_bank_011:
MSHR contents
MSHR: tag=0xc0034700, atomic=0 1 entries : 0x7fd15c95a290 :  mf: uid=41121410, sid03:w04, part=5, addr=0xc0034700, load , size=128, unknown  status = IN_PARTITION_DRAM (4856291), 

In Dram Latency Queue (total = 0): 
DRAM[5]: 16 bks, busW=4 BL=8 CL=12, tRRD=2 tCCD=6, tRCD=12 tRAS=28 tRP=12 tRC=40
n_cmd=6410305 n_nop=5484128 n_act=172983 n_pre=172967 n_req=300532 n_rd=405205 n_write=175022 bw_util=0.181
n_activity=3602163 dram_eff=0.3222
bk0: 25106a 5877027i bk1: 25012a 5867321i bk2: 25584a 5856392i bk3: 25504a 5840458i bk4: 26438a 5830377i bk5: 26774a 5811721i bk6: 24798a 5840923i bk7: 24800a 5826830i bk8: 25536a 5858144i bk9: 25185a 5848269i bk10: 24972a 5851386i bk11: 25234a 5832028i bk12: 25396a 5853263i bk13: 25474a 5837675i bk14: 24694a 5874964i bk15: 24698a 5859597i 
dram_util_bins: 0 0 0 0 0 0 0 0 0 0
dram_eff_bins: 0 0 0 0 0 0 0 0 0 0
mrqq: max=16 avg=0.905202

========= L2 cache stats =========
L2_cache_bank[0]: Access = 220874, Miss = 100561, Miss_rate = 0.455, Pending_hits = 2594, Reservation_fails = 1177
L2_cache_bank[1]: Access = 210512, Miss = 100750, Miss_rate = 0.479, Pending_hits = 2721, Reservation_fails = 1369
L2_cache_bank[2]: Access = 209740, Miss = 101480, Miss_rate = 0.484, Pending_hits = 2611, Reservation_fails = 1257
L2_cache_bank[3]: Access = 233316, Miss = 101922, Miss_rate = 0.437, Pending_hits = 2707, Reservation_fails = 1423
L2_cache_bank[4]: Access = 216135, Miss = 101811, Miss_rate = 0.471, Pending_hits = 2489, Reservation_fails = 1052
L2_cache_bank[5]: Access = 230406, Miss = 102046, Miss_rate = 0.443, Pending_hits = 2501, Reservation_fails = 950
L2_cache_bank[6]: Access = 212792, Miss = 101247, Miss_rate = 0.476, Pending_hits = 2551, Reservation_fails = 498
L2_cache_bank[7]: Access = 215753, Miss = 101238, Miss_rate = 0.469, Pending_hits = 2598, Reservation_fails = 1221
L2_cache_bank[8]: Access = 217216, Miss = 101385, Miss_rate = 0.467, Pending_hits = 2615, Reservation_fails = 1177
L2_cache_bank[9]: Access = 226625, Miss = 101250, Miss_rate = 0.447, Pending_hits = 2571, Reservation_fails = 1203
L2_cache_bank[10]: Access = 219768, Miss = 101262, Miss_rate = 0.461, Pending_hits = 2523, Reservation_fails = 1214
L2_cache_bank[11]: Access = 219252, Miss = 101341, Miss_rate = 0.462, Pending_hits = 2488, Reservation_fails = 1107
L2_total_cache_accesses = 2632389
L2_total_cache_misses = 1216293
L2_total_cache_miss_rate = 0.4620
L2_total_cache_pending_hits = 30969
L2_total_cache_reservation_fails = 13648
L2_total_cache_breakdown:
	L2_cache_stats_breakdown[GLOBAL_ACC_R][HIT] = 425417
	L2_cache_stats_breakdown[GLOBAL_ACC_R][HIT_RESERVED] = 20483
	L2_cache_stats_breakdown[GLOBAL_ACC_R][MISS] = 710079
	L2_cache_stats_breakdown[GLOBAL_ACC_R][RESERVATION_FAIL] = 10089
	L2_cache_stats_breakdown[LOCAL_ACC_R][HIT] = 7755
	L2_cache_stats_breakdown[LOCAL_ACC_R][HIT_RESERVED] = 2503
	L2_cache_stats_breakdown[LOCAL_ACC_R][MISS] = 141215
	L2_cache_stats_breakdown[LOCAL_ACC_R][RESERVATION_FAIL] = 82
	L2_cache_stats_breakdown[CONST_ACC_R][HIT] = 48
	L2_cache_stats_breakdown[CONST_ACC_R][HIT_RESERVED] = 9
	L2_cache_stats_breakdown[CONST_ACC_R][MISS] = 3
	L2_cache_stats_breakdown[CONST_ACC_R][RESERVATION_FAIL] = 203
	L2_cache_stats_breakdown[GLOBAL_ACC_W][HIT] = 287675
	L2_cache_stats_breakdown[GLOBAL_ACC_W][HIT_RESERVED] = 334
	L2_cache_stats_breakdown[GLOBAL_ACC_W][MISS] = 124406
	L2_cache_stats_breakdown[GLOBAL_ACC_W][RESERVATION_FAIL] = 20
	L2_cache_stats_breakdown[LOCAL_ACC_W][HIT] = 24018
	L2_cache_stats_breakdown[LOCAL_ACC_W][HIT_RESERVED] = 7219
	L2_cache_stats_breakdown[LOCAL_ACC_W][MISS] = 236496
	L2_cache_stats_breakdown[LOCAL_ACC_W][RESERVATION_FAIL] = 640
	L2_cache_stats_breakdown[L1_WRBK_ACC][HIT] = 2467
	L2_cache_stats_breakdown[L1_WRBK_ACC][MISS] = 1367
	L2_cache_stats_breakdown[INST_ACC_R][HIT] = 637747
	L2_cache_stats_breakdown[INST_ACC_R][HIT_RESERVED] = 421
	L2_cache_stats_breakdown[INST_ACC_R][MISS] = 2727
	L2_cache_stats_breakdown[INST_ACC_R][RESERVATION_FAIL] = 2614
L2_cache_data_port_util = 0.095
L2_cache_fill_port_util = 0.083

icnt_total_pkts_mem_to_simt=10422063
icnt_total_pkts_simt_to_mem=4385953
LD_mem_lat_dist  0 0 0 0 0 0 0 0 0 0 0 0 0 0 0 0 0 0 0 0 0 0 0 0 0 0 0
ST_mem_lat_dist  0 0 0 0 0 0 0 0 0 0 0 0 0 0 0 0 0 0 0 0 0 0 0 0 0 0 0
----------------------------Interconnect-DETAILS--------------------------------
Class 0:
Packet latency average = -nan
	minimum = nan
	maximum = -nan
Network latency average = -nan
	minimum = nan
	maximum = -nan
Slowest packet = -1
Flit latency average = -nan
	minimum = nan
	maximum = -nan
Slowest flit = -1
Fragmentation average = -nan
	minimum = nan
	maximum = -nan
Injected packet rate average = -nan
	minimum = -nan (at node 0)
	maximum = -nan (at node 0)
Accepted packet rate average = -nan
	minimum = -nan (at node 0)
	maximum = -nan (at node 0)
Injected flit rate average = -nan
	minimum = -nan (at node 0)
	maximum = -nan (at node 0)
Accepted flit rate average= -nan
	minimum = -nan (at node 0)
	maximum = -nan (at node 0)
Injected packet length average = -nan
Accepted packet length average = -nan
Total in-flight flits = 0 (0 measured)
====== Overall Traffic Statistics ======
====== Traffic class 0 ======
Packet latency average = -nan (31 samples)
	minimum = nan (31 samples)
	maximum = -nan (31 samples)
Network latency average = -nan (31 samples)
	minimum = nan (31 samples)
	maximum = -nan (31 samples)
Flit latency average = -nan (31 samples)
	minimum = nan (31 samples)
	maximum = -nan (31 samples)
Fragmentation average = -nan (31 samples)
	minimum = nan (31 samples)
	maximum = -nan (31 samples)
Injected packet rate average = -nan (31 samples)
	minimum = -nan (31 samples)
	maximum = -nan (31 samples)
Accepted packet rate average = -nan (31 samples)
	minimum = -nan (31 samples)
	maximum = -nan (31 samples)
Injected flit rate average = -nan (31 samples)
	minimum = -nan (31 samples)
	maximum = -nan (31 samples)
Accepted flit rate average = -nan (31 samples)
	minimum = -nan (31 samples)
	maximum = -nan (31 samples)
Injected packet size average = -nan (31 samples)
Accepted packet size average = -nan (31 samples)
Hops average = -nan (31 samples)
----------------------------END-of-Interconnect-DETAILS-------------------------
 Step number? Path to File? 
 opening ./data/wsm5_in_010
