

        *** GPGPU-Sim Simulator Version 3.2.2  [build gpgpu-sim_git-commit-ddd8790408a74e19f7f394289980b70d79dab717_modified_0] ***


GPGPU-Sim PTX: simulation mode 0 (can change with PTX_SIM_MODE_FUNC environment variable:
               1=functional simulation only, 0=detailed performance simulator)
GPGPU-Sim: Configuration options:

-network_mode                           1 # Interconnection network mode
-inter_config_file   config_fermi_islip.icnt # Interconnection network config file
-gpgpu_ptx_use_cuobjdump                    1 # Use cuobjdump to extract ptx and sass from binaries
-gpgpu_experimental_lib_support                    0 # Try to extract code from cuda libraries [Broken because of unknown cudaGetExportTable]
-gpgpu_ptx_convert_to_ptxplus                    1 # Convert SASS (native ISA) to ptxplus and run ptxplus
-gpgpu_ptx_force_max_capability                   10 # Force maximum compute capability
-gpgpu_ptx_inst_debug_to_file                    0 # Dump executed instructions' debug information to file
-gpgpu_ptx_inst_debug_file       inst_debug.txt # Executed instructions' debug output file
-gpgpu_ptx_inst_debug_thread_uid                    1 # Thread UID for executed instructions' debug output
-gpgpu_simd_model                       1 # 1 = post-dominator
-gpgpu_shader_core_pipeline              1536:32 # shader core pipeline config, i.e., {<nthread>:<warpsize>}
-gpgpu_tex_cache:l1  4:128:24,L:R:m:N:L,F:128:4,128:2 # per-shader L1 texture cache  (READ-ONLY) config  {<nsets>:<bsize>:<assoc>,<rep>:<wr>:<alloc>:<wr_alloc>,<mshr>:<N>:<merge>,<mq>:<rf>}
-gpgpu_const_cache:l1 64:64:2,L:R:f:N:L,A:2:32,4 # per-shader L1 constant memory cache  (READ-ONLY) config  {<nsets>:<bsize>:<assoc>,<rep>:<wr>:<alloc>:<wr_alloc>,<mshr>:<N>:<merge>,<mq>} 
-gpgpu_cache:il1     4:128:4,L:R:f:N:L,A:2:32,4 # shader L1 instruction cache config  {<nsets>:<bsize>:<assoc>,<rep>:<wr>:<alloc>:<wr_alloc>,<mshr>:<N>:<merge>,<mq>} 
-gpgpu_cache:dl1     32:128:4,L:L:m:N:H,A:32:8,8 # per-shader L1 data cache config  {<nsets>:<bsize>:<assoc>,<rep>:<wr>:<alloc>:<wr_alloc>,<mshr>:<N>:<merge>,<mq> | none}
-gpgpu_cache:dl1PrefL1                 none # per-shader L1 data cache config  {<nsets>:<bsize>:<assoc>,<rep>:<wr>:<alloc>:<wr_alloc>,<mshr>:<N>:<merge>,<mq> | none}
-gpgpu_cache:dl1PreShared                 none # per-shader L1 data cache config  {<nsets>:<bsize>:<assoc>,<rep>:<wr>:<alloc>:<wr_alloc>,<mshr>:<N>:<merge>,<mq> | none}
-gmem_skip_L1D                          0 # global memory access skip L1D cache (implements -Xptxas -dlcm=cg, default=no skip)
-gpgpu_perfect_mem                      0 # enable perfect memory mode (no cache miss)
-n_regfile_gating_group                    4 # group of lanes that should be read/written together)
-gpgpu_clock_gated_reg_file                    0 # enable clock gated reg file for power calculations
-gpgpu_clock_gated_lanes                    0 # enable clock gated lanes for power calculations
-gpgpu_shader_registers                32768 # Number of registers per shader core. Limits number of concurrent CTAs. (default 8192)
-gpgpu_shader_cta                       8 # Maximum number of concurrent CTAs in shader (default 8)
-gpgpu_num_cta_barriers                   16 # Maximum number of named barriers per CTA (default 16)
-gpgpu_n_clusters                      15 # number of processing clusters
-gpgpu_n_cores_per_cluster                    1 # number of simd cores per cluster
-gpgpu_n_cluster_ejection_buffer_size                    8 # number of packets in ejection buffer
-gpgpu_n_ldst_response_buffer_size                    2 # number of response packets in ld/st unit ejection buffer
-gpgpu_shmem_size                   16384 # Size of shared memory per shader core (default 16kB)
-gpgpu_shmem_size                   49152 # Size of shared memory per shader core (default 16kB)
-gpgpu_shmem_size_PrefL1                16384 # Size of shared memory per shader core (default 16kB)
-gpgpu_shmem_size_PrefShared                16384 # Size of shared memory per shader core (default 16kB)
-gpgpu_shmem_num_banks                   32 # Number of banks in the shared memory in each shader core (default 16)
-gpgpu_shmem_limited_broadcast                    0 # Limit shared memory to do one broadcast per cycle (default on)
-gpgpu_shmem_warp_parts                    1 # Number of portions a warp is divided into for shared memory bank conflict check 
-gpgpu_warpdistro_shader                   -1 # Specify which shader core to collect the warp size distribution from
-gpgpu_warp_issue_shader                    0 # Specify which shader core to collect the warp issue distribution from
-gpgpu_local_mem_map                    1 # Mapping from local memory space address to simulated GPU physical address space (default = enabled)
-gpgpu_num_reg_banks                   16 # Number of register banks (default = 8)
-gpgpu_reg_bank_use_warp_id                    0 # Use warp ID in mapping registers to banks (default = off)
-gpgpu_operand_collector_num_units_sp                    6 # number of collector units (default = 4)
-gpgpu_operand_collector_num_units_sfu                    8 # number of collector units (default = 4)
-gpgpu_operand_collector_num_units_mem                    2 # number of collector units (default = 2)
-gpgpu_operand_collector_num_units_gen                    0 # number of collector units (default = 0)
-gpgpu_operand_collector_num_in_ports_sp                    2 # number of collector unit in ports (default = 1)
-gpgpu_operand_collector_num_in_ports_sfu                    1 # number of collector unit in ports (default = 1)
-gpgpu_operand_collector_num_in_ports_mem                    1 # number of collector unit in ports (default = 1)
-gpgpu_operand_collector_num_in_ports_gen                    0 # number of collector unit in ports (default = 0)
-gpgpu_operand_collector_num_out_ports_sp                    2 # number of collector unit in ports (default = 1)
-gpgpu_operand_collector_num_out_ports_sfu                    1 # number of collector unit in ports (default = 1)
-gpgpu_operand_collector_num_out_ports_mem                    1 # number of collector unit in ports (default = 1)
-gpgpu_operand_collector_num_out_ports_gen                    0 # number of collector unit in ports (default = 0)
-gpgpu_coalesce_arch                   13 # Coalescing arch (default = 13, anything else is off for now)
-gpgpu_num_sched_per_core                    2 # Number of warp schedulers per core
-gpgpu_max_insn_issue_per_warp                    1 # Max number of instructions that can be issued per warp in one cycle by scheduler
-gpgpu_simt_core_sim_order                    1 # Select the simulation order of cores in a cluster (0=Fix, 1=Round-Robin)
-gpgpu_pipeline_widths        2,1,1,2,1,1,2 # Pipeline widths ID_OC_SP,ID_OC_SFU,ID_OC_MEM,OC_EX_SP,OC_EX_SFU,OC_EX_MEM,EX_WB
-gpgpu_num_sp_units                     2 # Number of SP units (default=1)
-gpgpu_num_sfu_units                    1 # Number of SF units (default=1)
-gpgpu_num_mem_units                    1 # Number if ldst units (default=1) WARNING: not hooked up to anything
-gpgpu_scheduler                      gto # Scheduler configuration: < lrr | gto | two_level_active > If two_level_active:<num_active_warps>:<inner_prioritization>:<outer_prioritization>For complete list of prioritization values see shader.h enum scheduler_prioritization_typeDefault: gto
-gpgpu_concurrent_kernel_sm                    0 # Support concurrent kernels on a SM (default = disabled)
-gpgpu_rfc_slots                        6 # Shader Register File Cache per-warp register capacity (default=6)
-gpgpu_dram_scheduler                    1 # 0 = fifo, 1 = FR-FCFS (defaul)
-gpgpu_dram_partition_queues              8:8:8:8 # i2$:$2d:d2$:$2i
-l2_ideal                               0 # Use a ideal L2 cache that always hit
-gpgpu_cache:dl2     64:128:8,L:B:m:W:L,A:32:4,4:0,32 # unified banked L2 data cache config  {<nsets>:<bsize>:<assoc>,<rep>:<wr>:<alloc>:<wr_alloc>,<mshr>:<N>:<merge>,<mq>}
-gpgpu_cache:dl2_texture_only                    0 # L2 cache used for texture only
-gpgpu_n_mem                            6 # number of memory modules (e.g. memory controllers) in gpu
-gpgpu_n_sub_partition_per_mchannel                    2 # number of memory subpartition in each memory module
-gpgpu_n_mem_per_ctrlr                    2 # number of memory chips per memory controller
-gpgpu_memlatency_stat                   14 # track and display latency statistics 0x2 enables MC, 0x4 enables queue logs
-gpgpu_frfcfs_dram_sched_queue_size                   16 # 0 = unlimited (default); # entries per chip
-gpgpu_dram_return_queue_size                  116 # 0 = unlimited (default); # entries per chip
-gpgpu_dram_buswidth                    4 # default = 4 bytes (8 bytes per cycle at DDR)
-gpgpu_dram_burst_length                    8 # Burst length of each DRAM request (default = 4 data bus cycle)
-dram_data_command_freq_ratio                    4 # Frequency ratio between DRAM data bus and command bus (default = 2 times, i.e. DDR)
-gpgpu_dram_timing_opt nbk=16:CCD=2:RRD=6:RCD=12:RAS=28:RP=12:RC=40: CL=12:WL=4:CDLR=5:WR=12:nbkgrp=4:CCDL=3:RTPL=2 # DRAM timing parameters = {nbk:tCCD:tRRD:tRCD:tRAS:tRP:tRC:CL:WL:tCDLR:tWR:nbkgrp:tCCDL:tRTPL}
-rop_latency                          120 # ROP queue latency (default 85)
-dram_latency                         100 # DRAM latency (default 30)
-gpgpu_mem_addr_mapping dramid@8;00000000.00000000.00000000.00000000.0000RRRR.RRRRRRRR.BBBCCCCB.CCSSSSSS # mapping memory address to dram model {dramid@<start bit>;<memory address map>}
-gpgpu_mem_addr_test                    0 # run sweep test to check address mapping for aliased address
-gpgpu_mem_address_mask                    1 # 0 = old addressing mask, 1 = new addressing mask, 2 = new add. mask + flipped bank sel and chip sel bits
-gpuwattch_xml_file  gpuwattch_gtx480.xml # GPUWattch XML file
-power_simulation_enabled                    1 # Turn on power simulator (1=On, 0=Off)
-power_per_cycle_dump                    0 # Dump detailed power output each cycle
-power_trace_enabled                    0 # produce a file for the power trace (1=On, 0=Off)
-power_trace_zlevel                     6 # Compression level of the power trace output log (0=no comp, 9=highest)
-steady_power_levels_enabled                    0 # produce a file for the steady power levels (1=On, 0=Off)
-steady_state_definition                  8:4 # allowed deviation:number of samples
-gpgpu_max_cycle                        0 # terminates gpu simulation early (0 = no limit)
-gpgpu_max_insn                         0 # terminates gpu simulation early (0 = no limit)
-gpgpu_max_cta                          0 # terminates gpu simulation early (0 = no limit)
-gpgpu_runtime_stat                   500 # display runtime statistics such as dram utilization {<freq>:<flag>}
-liveness_message_freq                    1 # Minimum number of seconds between simulation liveness messages (0 = always print)
-gpgpu_flush_l1_cache                    0 # Flush L1 cache at the end of each kernel call
-gpgpu_flush_l2_cache                    0 # Flush L2 cache at the end of each kernel call
-gpgpu_deadlock_detect                    1 # Stop the simulation at deadlock (1=on (default), 0=off)
-gpgpu_ptx_instruction_classification                    0 # if enabled will classify ptx instruction types per kernel (Max 255 kernels now)
-gpgpu_ptx_sim_mode                     0 # Select between Performance (default) or Functional simulation (1)
-gpgpu_clock_domains 700.0:700.0:700.0:924.0 # Clock Domain Frequencies in MhZ {<Core Clock>:<ICNT Clock>:<L2 Clock>:<DRAM Clock>}
-gpgpu_max_concurrent_kernel                    8 # maximum kernels that can run concurrently on GPU
-gpgpu_cflog_interval                    0 # Interval between each snapshot in control flow logger
-visualizer_enabled                     0 # Turn on visualizer output (1=On, 0=Off)
-visualizer_outputfile                 NULL # Specifies the output log file for visualizer
-visualizer_zlevel                      6 # Compression level of the visualizer output log (0=no comp, 9=highest)
-trace_enabled                          0 # Turn on traces
-trace_components                    none # comma seperated list of traces to enable. Complete list found in trace_streams.tup. Default none
-trace_sampling_core                    0 # The core which is printed using CORE_DPRINTF. Default 0
-trace_sampling_memory_partition                   -1 # The memory partition which is printed using MEMPART_DPRINTF. Default -1 (i.e. all)
-enable_ptx_file_line_stats                    1 # Turn on PTX source line statistic profiling. (1 = On)
-ptx_line_stats_filename gpgpu_inst_stats.txt # Output file for PTX source line statistics.
-gpgpu_kernel_launch_latency                    0 # Kernel launch latency in cycles. Default: 0
-gpgpu_cdp_enabled                      0 # Turn on CDP
-save_embedded_ptx                      0 # saves ptx files embedded in binary as <n>.ptx
-keep                                   0 # keep intermediate files created by GPGPU-Sim when interfacing with external programs
-gpgpu_ptx_save_converted_ptxplus                    0 # Saved converted ptxplus to a file
-ptx_opcode_latency_int         4,13,4,5,145 # Opcode latencies for integers <ADD,MAX,MUL,MAD,DIV>Default 1,1,19,25,145
-ptx_opcode_latency_fp          4,13,4,5,39 # Opcode latencies for single precision floating points <ADD,MAX,MUL,MAD,DIV>Default 1,1,1,1,30
-ptx_opcode_latency_dp         8,19,8,8,330 # Opcode latencies for double precision floating points <ADD,MAX,MUL,MAD,DIV>Default 8,8,8,8,335
-ptx_opcode_initiation_int            1,2,2,1,8 # Opcode initiation intervals for integers <ADD,MAX,MUL,MAD,DIV>Default 1,1,4,4,32
-ptx_opcode_initiation_fp            1,2,1,1,4 # Opcode initiation intervals for single precision floating points <ADD,MAX,MUL,MAD,DIV>Default 1,1,1,1,5
-ptx_opcode_initiation_dp         8,16,8,8,130 # Opcode initiation intervals for double precision floating points <ADD,MAX,MUL,MAD,DIV>Default 8,8,8,8,130
-cdp_latency         7200,8000,100,12000,1600 # CDP API latency <cudaStreamCreateWithFlags, cudaGetParameterBufferV2_init_perWarp, cudaGetParameterBufferV2_perKernel, cudaLaunchDeviceV2_init_perWarp, cudaLaunchDevicV2_perKernel>Default 7200,8000,100,12000,1600
DRAM Timing Options:
nbk                                    16 # number of banks
CCD                                     2 # column to column delay
RRD                                     6 # minimal delay between activation of rows in different banks
RCD                                    12 # row to column delay
RAS                                    28 # time needed to activate row
RP                                     12 # time needed to precharge (deactivate) row
RC                                     40 # row cycle time
CDLR                                    5 # switching from write to read (changes tWTR)
WR                                     12 # last data-in to row precharge
CL                                     12 # CAS latency
WL                                      4 # Write latency
nbkgrp                                  4 # number of bank groups
CCDL                                    3 # column to column delay between accesses to different bank groups
RTPL                                    2 # read to precharge delay between accesses to different bank groups
Total number of memory sub partition = 12
addr_dec_mask[CHIP]  = 0000000000000000 	high:64 low:0
addr_dec_mask[BK]    = 000000000000e100 	high:16 low:8
addr_dec_mask[ROW]   = 000000000fff0000 	high:28 low:16
addr_dec_mask[COL]   = 0000000000001eff 	high:13 low:0
addr_dec_mask[BURST] = 000000000000003f 	high:6 low:0
sub_partition_id_mask = 0000000000000100
GPGPU-Sim uArch: clock freqs: 700000000.000000:700000000.000000:700000000.000000:924000000.000000
GPGPU-Sim uArch: clock periods: 0.00000000142857142857:0.00000000142857142857:0.00000000142857142857:0.00000000108225108225
*** Initializing Memory Statistics ***
GPGPU-Sim uArch: interconnect node map (shaderID+MemID to icntID)
GPGPU-Sim uArch: Memory nodes ID start from index: 15
GPGPU-Sim uArch:    0   1   2   3   4
GPGPU-Sim uArch:    5   6   7   8   9
GPGPU-Sim uArch:   10  11  12  13  14
GPGPU-Sim uArch:   15  16  17  18  19
GPGPU-Sim uArch:   20  21  22  23  24
GPGPU-Sim uArch:   25  26
GPGPU-Sim uArch: interconnect node reverse map (icntID to shaderID+MemID)
GPGPU-Sim uArch: Memory nodes start from ID: 15
GPGPU-Sim uArch:    0   1   2   3   4
GPGPU-Sim uArch:    5   6   7   8   9
GPGPU-Sim uArch:   10  11  12  13  14
GPGPU-Sim uArch:   15  16  17  18  19
GPGPU-Sim uArch:   20  21  22  23  24
GPGPU-Sim uArch:   25  26
2e2a2126a76712faffefaccb9120491a  /home/min/a/tpritche/Courses/ECE_695_GPU/Assignments/HW2/GPGPU-Sim/benchmarks/wp/WP
GPGPU-Sim uArch: performance model initialization complete.
GPGPU-Sim PTX: __cudaRegisterFatBinary, fat_cubin_handle = 1, filename=wsm5_gpu.f.cu
self exe links to: /home/min/a/tpritche/Courses/ECE_695_GPU/Assignments/HW2/GPGPU-Sim/benchmarks/wp/WP
Running md5sum using "md5sum /home/min/a/tpritche/Courses/ECE_695_GPU/Assignments/HW2/GPGPU-Sim/benchmarks/wp/WP "
Parsing file _cuobjdump_complete_output_kNavCV
######### cuobjdump parser ########
## Adding new section ELF
Adding arch: sm_10
Adding identifier: wsm5.f.cu
## Adding new section PTX
Adding ptx filename: _cuobjdump_1.ptx
Adding arch: sm_10
Adding identifier: wsm5.f.cu
## Adding new section PTX
Adding ptx filename: _cuobjdump_2.ptx
Adding arch: sm_20
Adding identifier: wsm5.f.cu
## Adding new section ELF
Adding arch: sm_20
Adding identifier: wsm5.f.cu
## Adding new section ELF
Adding arch: sm_10
Adding identifier: wsm5_gpu.f.cu
## Adding new section PTX
Adding ptx filename: _cuobjdump_3.ptx
Adding arch: sm_10
Adding identifier: wsm5_gpu.f.cu
## Adding new section PTX
Adding ptx filename: _cuobjdump_4.ptx
Adding arch: sm_20
Adding identifier: wsm5_gpu.f.cu
## Adding new section ELF
Adding arch: sm_20
Adding identifier: wsm5_gpu.f.cu
Done parsing!!!
GPGPU-Sim PTX: __cudaRegisterFunction _Z8wsm5_gpuPfS_S_S_S_S_S_S_S_S_S_S_S_S_S_fS_iiiiiiiiiiiiiiiiii : hostFun 0x0x41b110, fat_cubin_handle = 1
GPGPU-Sim PTX: converting EMBEDDED .ptx file to ptxplus 
RUNNING cuobjdump_to_ptxplus ...
Parsing .elf file _cuobjdump_3.elf
()

Finished parsing .elf file _cuobjdump_3.elf
Parsing .ptx file _cuobjdump_3.ptx
Finished parsing .ptx file _cuobjdump_3.ptx
Parsing .sass file _cuobjdump_3.sass
Finished parsing .sass file _cuobjdump_3.sass
DONE. 
GPGPU-Sim PTX: calling cuobjdump_to_ptxplus
commandline: $GPGPUSIM_ROOT/build/$GPGPUSIM_CONFIG/cuobjdump_to_ptxplus/cuobjdump_to_ptxplus _cuobjdump_3.ptx _cuobjdump_3.sass _cuobjdump_3.elf _ptxplus_wF73FG
GPGPU-Sim PTX: removing temporary files using "rm -f _ptxplus_wF73FG"
GPGPU-Sim PTX: DONE converting EMBEDDED .ptx file to ptxplus 
GPGPU-Sim PTX: allocating constant region for "constant1_Z8wsm5_gpuPfS_S_S_S_S_S_S_S_S_S_S_S_S_S_fS_iiiiiiiiiiiiiiiiii" from 0x100 to 0x158 (global memory space) 1
GPGPU-Sim PTX: allocating local region for "l1" from 0x0 to 0x0 (local memory space)
GPGPU-Sim PTX: PTX uses two scalar type intruction with literal operand.
GPGPU-Sim PTX: instruction assembly for function '_Z8wsm5_gpuPfS_S_S_S_S_S_S_S_S_S_S_S_S_S_fS_iiiiiiiiiiiiiiiiii'...   done.
GPGPU-Sim PTX: finding reconvergence points for '_Z8wsm5_gpuPfS_S_S_S_S_S_S_S_S_S_S_S_S_S_fS_iiiiiiiiiiiiiiiiii'...
GPGPU-Sim PTX: Warning detected predicated return/exit.
GPGPU-Sim PTX: Warning detected predicated return/exit.
GPGPU-Sim PTX: Finding dominators for '_Z8wsm5_gpuPfS_S_S_S_S_S_S_S_S_S_S_S_S_S_fS_iiiiiiiiiiiiiiiiii'...
GPGPU-Sim PTX: Finding immediate dominators for '_Z8wsm5_gpuPfS_S_S_S_S_S_S_S_S_S_S_S_S_S_fS_iiiiiiiiiiiiiiiiii'...
GPGPU-Sim PTX: Finding postdominators for '_Z8wsm5_gpuPfS_S_S_S_S_S_S_S_S_S_S_S_S_S_fS_iiiiiiiiiiiiiiiiii'...
GPGPU-Sim PTX: Finding immediate postdominators for '_Z8wsm5_gpuPfS_S_S_S_S_S_S_S_S_S_S_S_S_S_fS_iiiiiiiiiiiiiiiiii'...
GPGPU-Sim PTX: pre-decoding instructions for '_Z8wsm5_gpuPfS_S_S_S_S_S_S_S_S_S_S_S_S_S_fS_iiiiiiiiiiiiiiiiii'...
GPGPU-Sim PTX: reconvergence points for _Z8wsm5_gpuPfS_S_S_S_S_S_S_S_S_S_S_S_S_S_fS_iiiiiiiiiiiiiiiiii...
GPGPU-Sim PTX:  1 (potential) branch divergence @  PC=0x0e0 (_1.ptx:99) @$p0.ne bra l0x00000128;
GPGPU-Sim PTX:    immediate post dominator      @  PC=0x0e8 (_1.ptx:100) add.u32 $ofs1, $ofs0, 0x000000d8;
GPGPU-Sim PTX:  2 (potential) branch divergence @  PC=0x118 (_1.ptx:106) @$p1.neu bra l0x00000138;
GPGPU-Sim PTX:    immediate post dominator      @  PC=0x1ec (_1.ptx:135) l0x000001e8: mov.u32 $r6, $r0;
GPGPU-Sim PTX:  3 (potential) branch divergence @  PC=0x120 (_1.ptx:107) bra l0x000001e8;
GPGPU-Sim PTX:    immediate post dominator      @  PC=0x1ec (_1.ptx:135) l0x000001e8: mov.u32 $r6, $r0;
GPGPU-Sim PTX:  4 (potential) branch divergence @  PC=0x130 (_1.ptx:109) bra l0x000000b0;
GPGPU-Sim PTX:    immediate post dominator      @  PC=0x0b0 (_1.ptx:93) l0x000000b0: and.b32 $r0, $r3, constant1_Z8wsm5_gpuPfS_S_S_S_S_S_S_S_S_S_S_S_S_S_fS_iiiiiiiiiiiiiiiiii[0x0004];
GPGPU-Sim PTX:  5 (potential) branch divergence @  PC=0x1e4 (_1.ptx:134) @$p1.ne bra l0x00000178;
GPGPU-Sim PTX:    immediate post dominator      @  PC=0x1ec (_1.ptx:135) l0x000001e8: mov.u32 $r6, $r0;
GPGPU-Sim PTX:  6 (potential) branch divergence @  PC=0x1f4 (_1.ptx:136) @$p0.eq bra l0x00000320;
GPGPU-Sim PTX:    immediate post dominator      @  PC=0x330 (_1.ptx:178) l0x00000320: mov.u32 $r6, $r0;
GPGPU-Sim PTX:  7 (potential) branch divergence @  PC=0x328 (_1.ptx:177) @$p1.ne bra l0x00000228;
GPGPU-Sim PTX:    immediate post dominator      @  PC=0x330 (_1.ptx:178) l0x00000320: mov.u32 $r6, $r0;
GPGPU-Sim PTX:  8 (potential) branch divergence @  PC=0x338 (_1.ptx:179) @$p0.eq bra l0x00000450;
GPGPU-Sim PTX:    immediate post dominator      @  PC=0x464 (_1.ptx:219) l0x00000450: add.u32 $ofs1, $ofs0, 0x00000088;
GPGPU-Sim PTX:  9 (potential) branch divergence @  PC=0x45c (_1.ptx:218) @$p1.ne bra l0x00000390;
GPGPU-Sim PTX:    immediate post dominator      @  PC=0x464 (_1.ptx:219) l0x00000450: add.u32 $ofs1, $ofs0, 0x00000088;
GPGPU-Sim PTX: 10 (potential) branch divergence @  PC=0x49c (_1.ptx:226) @$p1.ne bra l0x00003668;
GPGPU-Sim PTX:    immediate post dominator      @  PC=0x36cc (_1.ptx:1934) l0x00003668: mov.u32 $r1, $r0;
GPGPU-Sim PTX: 11 (potential) branch divergence @  PC=0x540 (_1.ptx:248) @$p0.eq bra l0x00000838;
GPGPU-Sim PTX:    immediate post dominator      @  PC=0x854 (_1.ptx:351) l0x00000838: mov.u32 $r5, $r0;
GPGPU-Sim PTX: 12 (potential) branch divergence @  PC=0x744 (_1.ptx:315) @$p1.eq bra l0x00000778;
GPGPU-Sim PTX:    immediate post dominator      @  PC=0x794 (_1.ptx:325) l0x00000778: ld.global.u32 $r21, [$r21];
GPGPU-Sim PTX: 13 (potential) branch divergence @  PC=0x84c (_1.ptx:350) @$p1.ne bra l0x00000608;
GPGPU-Sim PTX:    immediate post dominator      @  PC=0x854 (_1.ptx:351) l0x00000838: mov.u32 $r5, $r0;
GPGPU-Sim PTX: 14 (potential) branch divergence @  PC=0x85c (_1.ptx:352) @$p0.eq bra l0x00000890;
GPGPU-Sim PTX:    immediate post dominator      @  PC=0x8ac (_1.ptx:362) l0x00000890: mov.u32 $r5, $r0;
GPGPU-Sim PTX: 15 (potential) branch divergence @  PC=0x8a4 (_1.ptx:361) @$p1.ne bra l0x00000858;
GPGPU-Sim PTX:    immediate post dominator      @  PC=0x8ac (_1.ptx:362) l0x00000890: mov.u32 $r5, $r0;
GPGPU-Sim PTX: 16 (potential) branch divergence @  PC=0x8b4 (_1.ptx:363) @$p0.eq bra l0x00001040;
GPGPU-Sim PTX:    immediate post dominator      @  PC=0x1068 (_1.ptx:614) l0x00001048: set.lt.s32.s32 $p1/$o127, $r21, constant1_Z8wsm5_gpuPfS_S_S_S_S_S_S_S_S_S_S_S_S_S_fS_iiiiiiiiiiiiiiiiii[0x0004];
GPGPU-Sim PTX: 17 (potential) branch divergence @  PC=0xad8 (_1.ptx:432) @$p1.eq bra l0x00000b18;
GPGPU-Sim PTX:    immediate post dominator      @  PC=0xc00 (_1.ptx:469) l0x00000be0: add.u32 $r32, s[0x0040], $r28;
GPGPU-Sim PTX: 18 (potential) branch divergence @  PC=0xb30 (_1.ptx:443) bra l0x00000be0;
GPGPU-Sim PTX:    immediate post dominator      @  PC=0xc00 (_1.ptx:469) l0x00000be0: add.u32 $r32, s[0x0040], $r28;
GPGPU-Sim PTX: 19 (potential) branch divergence @  PC=0xc28 (_1.ptx:474) @$p1.eq bra l0x00000c80;
GPGPU-Sim PTX:    immediate post dominator      @  PC=0xd88 (_1.ptx:519) l0x00000d68: ld.global.u32 $r32, [$r29];
GPGPU-Sim PTX: 20 (potential) branch divergence @  PC=0xc98 (_1.ptx:488) bra l0x00000d68;
GPGPU-Sim PTX:    immediate post dominator      @  PC=0xd88 (_1.ptx:519) l0x00000d68: ld.global.u32 $r32, [$r29];
GPGPU-Sim PTX: 21 (potential) branch divergence @  PC=0x1050 (_1.ptx:611) @$p2.ne bra l0x00000a08;
GPGPU-Sim PTX:    immediate post dominator      @  PC=0x1058 (_1.ptx:612) bra l0x00001048;
GPGPU-Sim PTX: 22 (potential) branch divergence @  PC=0x1058 (_1.ptx:612) bra l0x00001048;
GPGPU-Sim PTX:    immediate post dominator      @  PC=0x1068 (_1.ptx:614) l0x00001048: set.lt.s32.s32 $p1/$o127, $r21, constant1_Z8wsm5_gpuPfS_S_S_S_S_S_S_S_S_S_S_S_S_S_fS_iiiiiiiiiiiiiiiiii[0x0004];
GPGPU-Sim PTX: 23 (potential) branch divergence @  PC=0x1078 (_1.ptx:616) @$p1.ne bra l0x000016a8;
GPGPU-Sim PTX:    immediate post dominator      @  PC=0x16dc (_1.ptx:837) l0x000016a8: mov.u32 $r5, $r3;
GPGPU-Sim PTX: 24 (potential) branch divergence @  PC=0x11bc (_1.ptx:660) @$p1.eq bra l0x000012e8;
GPGPU-Sim PTX:    immediate post dominator      @  PC=0x1318 (_1.ptx:709) l0x000012e8: mov.u32 $r6, $r3;
GPGPU-Sim PTX: 25 (potential) branch divergence @  PC=0x1308 (_1.ptx:706) @$p2.ne bra l0x000011c8;
GPGPU-Sim PTX:    immediate post dominator      @  PC=0x1310 (_1.ptx:707) mov.half.u32 $r1, $r8;
GPGPU-Sim PTX: 26 (potential) branch divergence @  PC=0x1320 (_1.ptx:710) @$p0.eq bra l0x00001690;
GPGPU-Sim PTX:    immediate post dominator      @  PC=0x16c4 (_1.ptx:834) l0x00001690: add.u32 $r10, $r10, 0x00000001;
GPGPU-Sim PTX: 27 (potential) branch divergence @  PC=0x1368 (_1.ptx:719) @$p2.eq bra l0x00001668;
GPGPU-Sim PTX:    immediate post dominator      @  PC=0x169c (_1.ptx:829) l0x00001668: add.u32 $ofs1, $ofs1, 0x0000fffc;
GPGPU-Sim PTX: 28 (potential) branch divergence @  PC=0x13ac (_1.ptx:728) @$p2.eq bra l0x00001668;
GPGPU-Sim PTX:    immediate post dominator      @  PC=0x169c (_1.ptx:829) l0x00001668: add.u32 $ofs1, $ofs1, 0x0000fffc;
GPGPU-Sim PTX: 29 (potential) branch divergence @  PC=0x16bc (_1.ptx:833) @$p2.ne bra l0x00001318;
GPGPU-Sim PTX:    immediate post dominator      @  PC=0x16c4 (_1.ptx:834) l0x00001690: add.u32 $r10, $r10, 0x00000001;
GPGPU-Sim PTX: 30 (potential) branch divergence @  PC=0x16d4 (_1.ptx:836) @$p2.ne bra l0x00001100;
GPGPU-Sim PTX:    immediate post dominator      @  PC=0x16dc (_1.ptx:837) l0x000016a8: mov.u32 $r5, $r3;
GPGPU-Sim PTX: 31 (potential) branch divergence @  PC=0x16e4 (_1.ptx:838) @$p0.eq bra l0x000018c0;
GPGPU-Sim PTX:    immediate post dominator      @  PC=0x1900 (_1.ptx:908) l0x000018c8: set.lt.s32.s32 $p1/$o127, $r6, constant1_Z8wsm5_gpuPfS_S_S_S_S_S_S_S_S_S_S_S_S_S_fS_iiiiiiiiiiiiiiiiii[0x0004];
GPGPU-Sim PTX: 32 (potential) branch divergence @  PC=0x1780 (_1.ptx:859) @$p1.eq bra l0x00001770;
GPGPU-Sim PTX:    immediate post dominator      @  PC=0x1878 (_1.ptx:891) l0x00001840: mul.f32 $r9, $r9, $r19;
GPGPU-Sim PTX: 33 (potential) branch divergence @  PC=0x17a0 (_1.ptx:863) bra l0x00001840;
GPGPU-Sim PTX:    immediate post dominator      @  PC=0x1878 (_1.ptx:891) l0x00001840: mul.f32 $r9, $r9, $r19;
GPGPU-Sim PTX: 34 (potential) branch divergence @  PC=0x18e8 (_1.ptx:905) @$p2.ne bra l0x00001708;
GPGPU-Sim PTX:    immediate post dominator      @  PC=0x18f0 (_1.ptx:906) bra l0x000018c8;
GPGPU-Sim PTX: 35 (potential) branch divergence @  PC=0x18f0 (_1.ptx:906) bra l0x000018c8;
GPGPU-Sim PTX:    immediate post dominator      @  PC=0x1900 (_1.ptx:908) l0x000018c8: set.lt.s32.s32 $p1/$o127, $r6, constant1_Z8wsm5_gpuPfS_S_S_S_S_S_S_S_S_S_S_S_S_S_fS_iiiiiiiiiiiiiiiiii[0x0004];
GPGPU-Sim PTX: 36 (potential) branch divergence @  PC=0x1910 (_1.ptx:910) @$p1.ne bra l0x00001ab8;
GPGPU-Sim PTX:    immediate post dominator      @  PC=0x1b00 (_1.ptx:979) l0x00001ab8: add.f32 $r5, $r1, $r2;
GPGPU-Sim PTX: 37 (potential) branch divergence @  PC=0x1a04 (_1.ptx:944) @$p1.eq bra l0x00001aa0;
GPGPU-Sim PTX:    immediate post dominator      @  PC=0x1ae8 (_1.ptx:976) l0x00001aa0: add.u32 $r23, $r23, 0x00000001;
GPGPU-Sim PTX: 38 (potential) branch divergence @  PC=0x1ae0 (_1.ptx:975) @$p2.ne bra l0x000019e8;
GPGPU-Sim PTX:    immediate post dominator      @  PC=0x1ae8 (_1.ptx:976) l0x00001aa0: add.u32 $r23, $r23, 0x00000001;
GPGPU-Sim PTX: 39 (potential) branch divergence @  PC=0x1af8 (_1.ptx:978) @$p2.ne bra l0x00001970;
GPGPU-Sim PTX:    immediate post dominator      @  PC=0x1b00 (_1.ptx:979) l0x00001ab8: add.f32 $r5, $r1, $r2;
GPGPU-Sim PTX: 40 (potential) branch divergence @  PC=0x1b40 (_1.ptx:987) @$p2.eq bra l0x00001bd8;
GPGPU-Sim PTX:    immediate post dominator      @  PC=0x1c28 (_1.ptx:1018) l0x00001bd8: add.f32 $r6, $r4, $r1;
GPGPU-Sim PTX: 41 (potential) branch divergence @  PC=0x1c58 (_1.ptx:1024) @$p2.eq bra l0x00001ce8;
GPGPU-Sim PTX:    immediate post dominator      @  PC=0x1d40 (_1.ptx:1054) l0x00001ce8: mov.u32 $r5, $r124;
GPGPU-Sim PTX: 42 (potential) branch divergence @  PC=0x1d58 (_1.ptx:1057) @$p1.eq bra l0x00001da8;
GPGPU-Sim PTX:    immediate post dominator      @  PC=0x1e08 (_1.ptx:1081) l0x00001da8: mov.u32 $r5, $r0;
GPGPU-Sim PTX: 43 (potential) branch divergence @  PC=0x1e10 (_1.ptx:1082) @$p0.eq bra l0x00003638;
GPGPU-Sim PTX:    immediate post dominator      @  PC=0x369c (_1.ptx:1928) l0x00003638: ld.local.u32 $r6, [0x0930];
GPGPU-Sim PTX: 44 (potential) branch divergence @  PC=0x1f4c (_1.ptx:1123) @$p3.eq bra l0x00001f28;
GPGPU-Sim PTX:    immediate post dominator      @  PC=0x1f8c (_1.ptx:1131) l0x00001f28: set.gt.f32.f32 $p2/$o127, $r30, constant1_Z8wsm5_gpuPfS_S_S_S_S_S_S_S_S_S_S_S_S_S_fS_iiiiiiiiiiiiiiiiii[0x0048];
GPGPU-Sim PTX: 45 (potential) branch divergence @  PC=0x1fa4 (_1.ptx:1134) @$p2.eq bra l0x00001f80;
GPGPU-Sim PTX:    immediate post dominator      @  PC=0x1fe4 (_1.ptx:1142) l0x00001f80: set.gt.f32.f32 $p3/$r8, $r30, $r124;
GPGPU-Sim PTX: 46 (potential) branch divergence @  PC=0x1ffc (_1.ptx:1145) @$p3.eq bra l0x00002068;
GPGPU-Sim PTX:    immediate post dominator      @  PC=0x20e4 (_1.ptx:1177) l0x00002080: cvt.f32.f32 $r39, $r33;
GPGPU-Sim PTX: 47 (potential) branch divergence @  PC=0x2024 (_1.ptx:1150) @$p3.eq bra l0x00002080;
GPGPU-Sim PTX:    immediate post dominator      @  PC=0x20e4 (_1.ptx:1177) l0x00002080: cvt.f32.f32 $r39, $r33;
GPGPU-Sim PTX: 48 (potential) branch divergence @  PC=0x20c4 (_1.ptx:1173) bra l0x00002080;
GPGPU-Sim PTX:    immediate post dominator      @  PC=0x20e4 (_1.ptx:1177) l0x00002080: cvt.f32.f32 $r39, $r33;
GPGPU-Sim PTX: 49 (potential) branch divergence @  PC=0x20fc (_1.ptx:1180) @$p2.eq bra l0x00002180;
GPGPU-Sim PTX:    immediate post dominator      @  PC=0x21ec (_1.ptx:1214) l0x00002188: nop;
GPGPU-Sim PTX: 50 (potential) branch divergence @  PC=0x210c (_1.ptx:1182) @$p3.eq bra l0x00002188;
GPGPU-Sim PTX:    immediate post dominator      @  PC=0x21ec (_1.ptx:1214) l0x00002188: nop;
GPGPU-Sim PTX: 51 (potential) branch divergence @  PC=0x21dc (_1.ptx:1212) bra l0x00002188;
GPGPU-Sim PTX:    immediate post dominator      @  PC=0x21ec (_1.ptx:1214) l0x00002188: nop;
GPGPU-Sim PTX: 52 (potential) branch divergence @  PC=0x223c (_1.ptx:1224) @$p2.eq bra l0x00002248;
GPGPU-Sim PTX:    immediate post dominator      @  PC=0x236c (_1.ptx:1262) l0x00002308: cvt.f32.f32 $r42, $r35;
GPGPU-Sim PTX: 53 (potential) branch divergence @  PC=0x22a4 (_1.ptx:1237) bra l0x00002308;
GPGPU-Sim PTX:    immediate post dominator      @  PC=0x236c (_1.ptx:1262) l0x00002308: cvt.f32.f32 $r42, $r35;
GPGPU-Sim PTX: 54 (potential) branch divergence @  PC=0x2384 (_1.ptx:1265) @$p2.eq bra l0x00002390;
GPGPU-Sim PTX:    immediate post dominator      @  PC=0x24bc (_1.ptx:1305) l0x00002458: rsqrt.f32 $r10, $r32;
GPGPU-Sim PTX: 55 (potential) branch divergence @  PC=0x23ec (_1.ptx:1278) bra l0x00002458;
GPGPU-Sim PTX:    immediate post dominator      @  PC=0x24bc (_1.ptx:1305) l0x00002458: rsqrt.f32 $r10, $r32;
GPGPU-Sim PTX: 56 (potential) branch divergence @  PC=0x26f4 (_1.ptx:1384) @$p2.eq bra l0x00002720;
GPGPU-Sim PTX:    immediate post dominator      @  PC=0x278c (_1.ptx:1404) l0x00002728: set.gt.f32.f32 $p2/$o127, $r39, constant1_Z8wsm5_gpuPfS_S_S_S_S_S_S_S_S_S_S_S_S_S_fS_iiiiiiiiiiiiiiiiii[0x0024];
GPGPU-Sim PTX: 57 (potential) branch divergence @  PC=0x277c (_1.ptx:1402) bra l0x00002728;
GPGPU-Sim PTX:    immediate post dominator      @  PC=0x278c (_1.ptx:1404) l0x00002728: set.gt.f32.f32 $p2/$o127, $r39, constant1_Z8wsm5_gpuPfS_S_S_S_S_S_S_S_S_S_S_S_S_S_fS_iiiiiiiiiiiiiiiiii[0x0024];
GPGPU-Sim PTX: 58 (potential) branch divergence @  PC=0x279c (_1.ptx:1406) @$p2.eq bra l0x000027a0;
GPGPU-Sim PTX:    immediate post dominator      @  PC=0x281c (_1.ptx:1424) l0x000027b8: nop;
GPGPU-Sim PTX: 59 (potential) branch divergence @  PC=0x27ac (_1.ptx:1408) @$p2.eq bra l0x000027b0;
GPGPU-Sim PTX:    immediate post dominator      @  PC=0x281c (_1.ptx:1424) l0x000027b8: nop;
GPGPU-Sim PTX: 60 (potential) branch divergence @  PC=0x27fc (_1.ptx:1420) bra l0x000027b8;
GPGPU-Sim PTX:    immediate post dominator      @  PC=0x281c (_1.ptx:1424) l0x000027b8: nop;
GPGPU-Sim PTX: 61 (potential) branch divergence @  PC=0x280c (_1.ptx:1422) bra l0x000027b8;
GPGPU-Sim PTX:    immediate post dominator      @  PC=0x281c (_1.ptx:1424) l0x000027b8: nop;
GPGPU-Sim PTX: 62 (potential) branch divergence @  PC=0x282c (_1.ptx:1426) @$p3.eq bra l0x000028a0;
GPGPU-Sim PTX:    immediate post dominator      @  PC=0x290c (_1.ptx:1456) l0x000028a8: add.f32 $r53, $r57, -$r56;
GPGPU-Sim PTX: 63 (potential) branch divergence @  PC=0x28bc (_1.ptx:1445) @$p2.eq bra l0x00002888;
GPGPU-Sim PTX:    immediate post dominator      @  PC=0x290c (_1.ptx:1456) l0x000028a8: add.f32 $r53, $r57, -$r56;
GPGPU-Sim PTX: 64 (potential) branch divergence @  PC=0x28e4 (_1.ptx:1451) bra l0x000028a8;
GPGPU-Sim PTX:    immediate post dominator      @  PC=0x290c (_1.ptx:1456) l0x000028a8: add.f32 $r53, $r57, -$r56;
GPGPU-Sim PTX: 65 (potential) branch divergence @  PC=0x28fc (_1.ptx:1454) bra l0x000028a8;
GPGPU-Sim PTX:    immediate post dominator      @  PC=0x290c (_1.ptx:1456) l0x000028a8: add.f32 $r53, $r57, -$r56;
GPGPU-Sim PTX: 66 (potential) branch divergence @  PC=0x29a4 (_1.ptx:1476) @$p3.eq bra l0x000029b0;
GPGPU-Sim PTX:    immediate post dominator      @  PC=0x2a2c (_1.ptx:1495) l0x000029c8: nop;
GPGPU-Sim PTX: 67 (potential) branch divergence @  PC=0x29b4 (_1.ptx:1478) @$p3.eq bra l0x000029c0;
GPGPU-Sim PTX:    immediate post dominator      @  PC=0x2a2c (_1.ptx:1495) l0x000029c8: nop;
GPGPU-Sim PTX: 68 (potential) branch divergence @  PC=0x2a0c (_1.ptx:1491) bra l0x000029c8;
GPGPU-Sim PTX:    immediate post dominator      @  PC=0x2a2c (_1.ptx:1495) l0x000029c8: nop;
GPGPU-Sim PTX: 69 (potential) branch divergence @  PC=0x2a1c (_1.ptx:1493) bra l0x000029c8;
GPGPU-Sim PTX:    immediate post dominator      @  PC=0x2a2c (_1.ptx:1495) l0x000029c8: nop;
GPGPU-Sim PTX: 70 (potential) branch divergence @  PC=0x2a44 (_1.ptx:1498) @$p3.eq bra l0x00002f80;
GPGPU-Sim PTX:    immediate post dominator      @  PC=0x300c (_1.ptx:1692) l0x00002fa8: nop;
GPGPU-Sim PTX: 71 (potential) branch divergence @  PC=0x2a5c (_1.ptx:1501) @$p2.eq bra l0x00002b78;
GPGPU-Sim PTX:    immediate post dominator      @  PC=0x2bf4 (_1.ptx:1555) l0x00002b90: set.gt.f32.f32 $p2/$o127, $r6, $r124;
GPGPU-Sim PTX: 72 (potential) branch divergence @  PC=0x2a6c (_1.ptx:1503) @$p2.eq bra l0x00002b88;
GPGPU-Sim PTX:    immediate post dominator      @  PC=0x2bf4 (_1.ptx:1555) l0x00002b90: set.gt.f32.f32 $p2/$o127, $r6, $r124;
GPGPU-Sim PTX: 73 (potential) branch divergence @  PC=0x2bd4 (_1.ptx:1551) bra l0x00002b90;
GPGPU-Sim PTX:    immediate post dominator      @  PC=0x2bf4 (_1.ptx:1555) l0x00002b90: set.gt.f32.f32 $p2/$o127, $r6, $r124;
GPGPU-Sim PTX: 74 (potential) branch divergence @  PC=0x2be4 (_1.ptx:1553) bra l0x00002b90;
GPGPU-Sim PTX:    immediate post dominator      @  PC=0x2bf4 (_1.ptx:1555) l0x00002b90: set.gt.f32.f32 $p2/$o127, $r6, $r124;
GPGPU-Sim PTX: 75 (potential) branch divergence @  PC=0x2c04 (_1.ptx:1557) @$p2.eq bra l0x00002ca0;
GPGPU-Sim PTX:    immediate post dominator      @  PC=0x2d14 (_1.ptx:1593) l0x00002cb0: set.gt.f32.f32 $p3/$o127, $r42, $r124;
GPGPU-Sim PTX: 76 (potential) branch divergence @  PC=0x2cfc (_1.ptx:1590) bra l0x00002cb0;
GPGPU-Sim PTX:    immediate post dominator      @  PC=0x2d14 (_1.ptx:1593) l0x00002cb0: set.gt.f32.f32 $p3/$o127, $r42, $r124;
GPGPU-Sim PTX: 77 (potential) branch divergence @  PC=0x2d2c (_1.ptx:1596) @$p3.eq bra l0x00002de0;
GPGPU-Sim PTX:    immediate post dominator      @  PC=0x2e5c (_1.ptx:1637) l0x00002df8: set.gt.f32.f32 $r41, $r53, $r124;
GPGPU-Sim PTX: 78 (potential) branch divergence @  PC=0x2d34 (_1.ptx:1597) @$p2.eq bra l0x00002df0;
GPGPU-Sim PTX:    immediate post dominator      @  PC=0x2e5c (_1.ptx:1637) l0x00002df8: set.gt.f32.f32 $r41, $r53, $r124;
GPGPU-Sim PTX: 79 (potential) branch divergence @  PC=0x2e3c (_1.ptx:1633) bra l0x00002df8;
GPGPU-Sim PTX:    immediate post dominator      @  PC=0x2e5c (_1.ptx:1637) l0x00002df8: set.gt.f32.f32 $r41, $r53, $r124;
GPGPU-Sim PTX: 80 (potential) branch divergence @  PC=0x2e4c (_1.ptx:1635) bra l0x00002df8;
GPGPU-Sim PTX:    immediate post dominator      @  PC=0x2e5c (_1.ptx:1637) l0x00002df8: set.gt.f32.f32 $r41, $r53, $r124;
GPGPU-Sim PTX: 81 (potential) branch divergence @  PC=0x2e8c (_1.ptx:1643) @$p2.eq bra l0x00002f20;
GPGPU-Sim PTX:    immediate post dominator      @  PC=0x2f8c (_1.ptx:1676) l0x00002f28: set.gt.f32.f32 $p2/$o127, $r49, $r124;
GPGPU-Sim PTX: 82 (potential) branch divergence @  PC=0x2f7c (_1.ptx:1674) bra l0x00002f28;
GPGPU-Sim PTX:    immediate post dominator      @  PC=0x2f8c (_1.ptx:1676) l0x00002f28: set.gt.f32.f32 $p2/$o127, $r49, $r124;
GPGPU-Sim PTX: 83 (potential) branch divergence @  PC=0x2f94 (_1.ptx:1677) @$p2.eq bra l0x00002f70;
GPGPU-Sim PTX:    immediate post dominator      @  PC=0x300c (_1.ptx:1692) l0x00002fa8: nop;
GPGPU-Sim PTX: 84 (potential) branch divergence @  PC=0x2fcc (_1.ptx:1684) bra l0x00002fa8;
GPGPU-Sim PTX:    immediate post dominator      @  PC=0x300c (_1.ptx:1692) l0x00002fa8: nop;
GPGPU-Sim PTX: 85 (potential) branch divergence @  PC=0x2fdc (_1.ptx:1686) bra l0x00002fa8;
GPGPU-Sim PTX:    immediate post dominator      @  PC=0x300c (_1.ptx:1692) l0x00002fa8: nop;
GPGPU-Sim PTX: 86 (potential) branch divergence @  PC=0x301c (_1.ptx:1694) @$p1.eq bra l0x00003048;
GPGPU-Sim PTX:    immediate post dominator      @  PC=0x30b4 (_1.ptx:1714) l0x00003050: add.f32 $r42, $r39, $r38;
GPGPU-Sim PTX: 87 (potential) branch divergence @  PC=0x3034 (_1.ptx:1697) @$p1.eq bra l0x00003010;
GPGPU-Sim PTX:    immediate post dominator      @  PC=0x308c (_1.ptx:1709) l0x00003028: mul.f32 $r41, $r22, $r35;
GPGPU-Sim PTX: 88 (potential) branch divergence @  PC=0x3054 (_1.ptx:1701) @$p1.eq bra l0x00003020;
GPGPU-Sim PTX:    immediate post dominator      @  PC=0x308c (_1.ptx:1709) l0x00003028: mul.f32 $r41, $r22, $r35;
GPGPU-Sim PTX: 89 (potential) branch divergence @  PC=0x306c (_1.ptx:1705) bra l0x00003028;
GPGPU-Sim PTX:    immediate post dominator      @  PC=0x308c (_1.ptx:1709) l0x00003028: mul.f32 $r41, $r22, $r35;
GPGPU-Sim PTX: 90 (potential) branch divergence @  PC=0x307c (_1.ptx:1707) bra l0x00003028;
GPGPU-Sim PTX:    immediate post dominator      @  PC=0x308c (_1.ptx:1709) l0x00003028: mul.f32 $r41, $r22, $r35;
GPGPU-Sim PTX: 91 (potential) branch divergence @  PC=0x30a4 (_1.ptx:1712) bra l0x00003050;
GPGPU-Sim PTX:    immediate post dominator      @  PC=0x30b4 (_1.ptx:1714) l0x00003050: add.f32 $r42, $r39, $r38;
GPGPU-Sim PTX: 92 (potential) branch divergence @  PC=0x30ec (_1.ptx:1721) @$p1.eq bra l0x00003270;
GPGPU-Sim PTX:    immediate post dominator      @  PC=0x33f4 (_1.ptx:1836) l0x00003390: ld.global.u32 $r32, [$r36];
GPGPU-Sim PTX: 93 (potential) branch divergence @  PC=0x32cc (_1.ptx:1793) bra l0x00003390;
GPGPU-Sim PTX:    immediate post dominator      @  PC=0x33f4 (_1.ptx:1836) l0x00003390: ld.global.u32 $r32, [$r36];
GPGPU-Sim PTX: 94 (potential) branch divergence @  PC=0x3334 (_1.ptx:1807) @$p1.eq bra l0x00003300;
GPGPU-Sim PTX:    immediate post dominator      @  PC=0x3364 (_1.ptx:1816) l0x00003300: mul.f32 $r8, $r19, $r41;
GPGPU-Sim PTX: 95 (potential) branch divergence @  PC=0x359c (_1.ptx:1896) @$p1.eq bra l0x00003568;
GPGPU-Sim PTX:    immediate post dominator      @  PC=0x35cc (_1.ptx:1902) l0x00003568: nop;
GPGPU-Sim PTX: 96 (potential) branch divergence @  PC=0x3694 (_1.ptx:1927) @$p1.ne bra l0x00001df0;
GPGPU-Sim PTX:    immediate post dominator      @  PC=0x369c (_1.ptx:1928) l0x00003638: ld.local.u32 $r6, [0x0930];
GPGPU-Sim PTX: 97 (potential) branch divergence @  PC=0x36c4 (_1.ptx:1933) @$p1.ne bra l0x00000520;
GPGPU-Sim PTX:    immediate post dominator      @  PC=0x36cc (_1.ptx:1934) l0x00003668: mov.u32 $r1, $r0;
GPGPU-Sim PTX: 98 (potential) branch divergence @  PC=0x3788 (_1.ptx:1961) @$p0.ne bra l0x000036b8;
GPGPU-Sim PTX:    immediate post dominator      @  PC=0x3790 (_1.ptx:1962) nop;
GPGPU-Sim PTX: ... end of reconvergence points for _Z8wsm5_gpuPfS_S_S_S_S_S_S_S_S_S_S_S_S_S_fS_iiiiiiiiiiiiiiiiii
GPGPU-Sim PTX: ... done pre-decoding instructions for '_Z8wsm5_gpuPfS_S_S_S_S_S_S_S_S_S_S_S_S_S_fS_iiiiiiiiiiiiiiiiii'.
GPGPU-Sim PTX: finished parsing EMBEDDED .ptx file _1.ptx
Adding _cuobjdump_3.ptx with cubin handle 1
GPGPU-Sim PTX: extracting embedded .ptx to temporary file "_ptx_kGYGys"
Running: cat _ptx_kGYGys | sed 's/.version 1.5/.version 1.4/' | sed 's/, texmode_independent//' | sed 's/\(\.extern \.const\[1\] .b8 \w\+\)\[\]/\1\[1\]/' | sed 's/const\[.\]/const\[0\]/g' > _ptx2_GJRyue
GPGPU-Sim PTX: generating ptxinfo using "$CUDA_INSTALL_PATH/bin/ptxas --gpu-name=sm_10 -v _ptx2_GJRyue --output-file  /dev/null 2> _ptx_kGYGysinfo"
GPGPU-Sim PTX: Kernel '_Z8wsm5_gpuPfS_S_S_S_S_S_S_S_S_S_S_S_S_S_fS_iiiiiiiiiiiiiiiiii' : regs=60, lmem=2360, smem=224, cmem=88
GPGPU-Sim PTX: removing ptxinfo using "rm -f _ptx_kGYGys _ptx2_GJRyue _ptx_kGYGysinfo"
GPGPU-Sim PTX: loading globals with explicit initializers... 
GPGPU-Sim PTX: finished loading globals (0 bytes total).
GPGPU-Sim PTX: loading constants with explicit initializers...  done.
GPGPU-Sim PTX: __cudaRegisterFatBinary, fat_cubin_handle = 2, filename=wsm5.f.cu
kernel_name = 
kernel_launch_uid = 
gpu_sim_cycle = 0
gpu_sim_insn = 0
gpu_ipc =         -nan
gpu_tot_sim_cycle = 0
gpu_tot_sim_insn = 0
gpu_tot_ipc =         -nan
gpu_tot_issued_cta = 0
max_total_param_size = 0
gpu_stall_dramfull = 0
gpu_stall_icnt2sh    = 0
gpu_total_sim_rate=0

========= Core RFC stats =========
	Total RFC Accesses     = 0
	Total RFC Misses       = 0
	Total RFC Read Misses  = 0
	Total RFC Write Misses = 0
	Total RFC Evictions    = 0

========= Core cache stats =========
L1I_cache:
	L1I_total_cache_accesses = 0
	L1I_total_cache_misses = 0
	L1I_total_cache_pending_hits = 0
	L1I_total_cache_reservation_fails = 0
L1D_cache:
	L1D_cache_core[0]: Access = 0, Miss = 0, Miss_rate = -nan, Pending_hits = 0, Reservation_fails = 0
	L1D_cache_core[1]: Access = 0, Miss = 0, Miss_rate = -nan, Pending_hits = 0, Reservation_fails = 0
	L1D_cache_core[2]: Access = 0, Miss = 0, Miss_rate = -nan, Pending_hits = 0, Reservation_fails = 0
	L1D_cache_core[3]: Access = 0, Miss = 0, Miss_rate = -nan, Pending_hits = 0, Reservation_fails = 0
	L1D_cache_core[4]: Access = 0, Miss = 0, Miss_rate = -nan, Pending_hits = 0, Reservation_fails = 0
	L1D_cache_core[5]: Access = 0, Miss = 0, Miss_rate = -nan, Pending_hits = 0, Reservation_fails = 0
	L1D_cache_core[6]: Access = 0, Miss = 0, Miss_rate = -nan, Pending_hits = 0, Reservation_fails = 0
	L1D_cache_core[7]: Access = 0, Miss = 0, Miss_rate = -nan, Pending_hits = 0, Reservation_fails = 0
	L1D_cache_core[8]: Access = 0, Miss = 0, Miss_rate = -nan, Pending_hits = 0, Reservation_fails = 0
	L1D_cache_core[9]: Access = 0, Miss = 0, Miss_rate = -nan, Pending_hits = 0, Reservation_fails = 0
	L1D_cache_core[10]: Access = 0, Miss = 0, Miss_rate = -nan, Pending_hits = 0, Reservation_fails = 0
	L1D_cache_core[11]: Access = 0, Miss = 0, Miss_rate = -nan, Pending_hits = 0, Reservation_fails = 0
	L1D_cache_core[12]: Access = 0, Miss = 0, Miss_rate = -nan, Pending_hits = 0, Reservation_fails = 0
	L1D_cache_core[13]: Access = 0, Miss = 0, Miss_rate = -nan, Pending_hits = 0, Reservation_fails = 0
	L1D_cache_core[14]: Access = 0, Miss = 0, Miss_rate = -nan, Pending_hits = 0, Reservation_fails = 0
	L1D_total_cache_accesses = 0
	L1D_total_cache_misses = 0
	L1D_total_cache_pending_hits = 0
	L1D_total_cache_reservation_fails = 0
	L1D_cache_data_port_util = 0.000
	L1D_cache_fill_port_util = 0.000
L1C_cache:
	L1C_total_cache_accesses = 0
	L1C_total_cache_misses = 0
	L1C_total_cache_pending_hits = 0
	L1C_total_cache_reservation_fails = 0
L1T_cache:
	L1T_total_cache_accesses = 0
	L1T_total_cache_misses = 0
	L1T_total_cache_pending_hits = 0
	L1T_total_cache_reservation_fails = 0

Total_core_cache_stats:
Shader 0 warp_id issue ditsribution:
warp_id:

distro:

gpgpu_n_tot_thrd_icount = 0
gpgpu_n_tot_w_icount = 0
gpgpu_n_stall_shd_mem = 0
gpgpu_n_mem_read_local = 0
gpgpu_n_mem_write_local = 0
gpgpu_n_mem_read_global = 0
gpgpu_n_mem_write_global = 0
gpgpu_n_mem_texture = 0
gpgpu_n_mem_const = 0
gpgpu_n_load_insn  = 0
gpgpu_n_store_insn = 0
gpgpu_n_shmem_insn = 0
gpgpu_n_tex_insn = 0
gpgpu_n_const_mem_insn = 0
gpgpu_n_param_mem_insn = 0
gpgpu_n_shmem_bkconflict = 0
gpgpu_n_cache_bkconflict = 0
gpgpu_n_intrawarp_mshr_merge = 0
gpgpu_n_cmem_portconflict = 0
gpgpu_stall_shd_mem[c_mem][bk_conf] = 0
gpgpu_stall_shd_mem[c_mem][mshr_rc] = 0
gpgpu_stall_shd_mem[c_mem][icnt_rc] = 0
gpgpu_stall_shd_mem[c_mem][data_port_stall] = 0
gpgpu_stall_shd_mem[t_mem][mshr_rc] = 0
gpgpu_stall_shd_mem[t_mem][icnt_rc] = 0
gpgpu_stall_shd_mem[t_mem][data_port_stall] = 0
gpgpu_stall_shd_mem[s_mem][bk_conf] = 0
gpgpu_stall_shd_mem[gl_mem][bk_conf] = 0
gpgpu_stall_shd_mem[gl_mem][coal_stall] = 0
gpgpu_stall_shd_mem[gl_mem][data_port_stall] = 0
gpgpu_stall_shd_mem[g_mem_ld][mshr_rc] = 0
gpgpu_stall_shd_mem[g_mem_ld][icnt_rc] = 0
gpgpu_stall_shd_mem[g_mem_ld][wb_icnt_rc] = 0
gpgpu_stall_shd_mem[g_mem_ld][wb_rsrv_fail] = 0
gpgpu_stall_shd_mem[g_mem_st][mshr_rc] = 0
gpgpu_stall_shd_mem[g_mem_st][icnt_rc] = 0
gpgpu_stall_shd_mem[g_mem_st][wb_icnt_rc] = 0
gpgpu_stall_shd_mem[g_mem_st][wb_rsrv_fail] = 0
gpgpu_stall_shd_mem[l_mem_ld][mshr_rc] = 0
gpgpu_stall_shd_mem[l_mem_ld][icnt_rc] = 0
gpgpu_stall_shd_mem[l_mem_ld][wb_icnt_rc] = 0
gpgpu_stall_shd_mem[l_mem_ld][wb_rsrv_fail] = 0
gpgpu_stall_shd_mem[l_mem_st][mshr_rc] = 0
gpgpu_stall_shd_mem[l_mem_st][icnt_rc] = 0
gpgpu_stall_shd_mem[l_mem_ld][wb_icnt_rc] = 0
gpgpu_stall_shd_mem[l_mem_ld][wb_rsrv_fail] = 0
gpu_reg_bank_conflict_stalls = 0
Warp Occupancy Distribution:
Stall:0	W0_Idle:0	W0_Scoreboard:0	W1:0	W2:0	W3:0	W4:0	W5:0	W6:0	W7:0	W8:0	W9:0	W10:0	W11:0	W12:0	W13:0	W14:0	W15:0	W16:0	W17:0	W18:0	W19:0	W20:0	W21:0	W22:0	W23:0	W24:0	W25:0	W26:0	W27:0	W28:0	W29:0	W30:0	W31:0	W32:0
maxmrqlatency = 0 
maxdqlatency = 0 
maxmflatency = 0 
max_icnt2mem_latency = 0 
max_icnt2sh_latency = 0 
mrq_lat_table:0 	0 	0 	0 	0 	0 	0 	0 	0 	0 	0 	0 	0 	0 	0 	0 	0 	0 	0 	0 	0 	0 	0 	0 	0 	0 	0 	0 	0 	0 	0 	0 	
dq_lat_table:0 	0 	0 	0 	0 	0 	0 	0 	0 	0 	0 	0 	0 	0 	0 	0 	0 	0 	0 	0 	0 	0 	0 	0 	0 	0 	0 	0 	0 	0 	0 	0 	
mf_lat_table:0 	0 	0 	0 	0 	0 	0 	0 	0 	0 	0 	0 	0 	0 	0 	0 	0 	0 	0 	0 	0 	0 	0 	0 	0 	0 	0 	0 	0 	0 	0 	0 	
icnt2mem_lat_table:0 	0 	0 	0 	0 	0 	0 	0 	0 	0 	0 	0 	0 	0 	0 	0 	0 	0 	0 	0 	0 	0 	0 	0 	
icnt2sh_lat_table:0 	0 	0 	0 	0 	0 	0 	0 	0 	0 	0 	0 	0 	0 	0 	0 	0 	0 	0 	0 	0 	0 	0 	0 	
mf_lat_pw_table:0 	0 	0 	0 	0 	0 	0 	0 	0 	0 	0 	0 	0 	0 	0 	0 	0 	0 	0 	0 	0 	0 	0 	0 	0 	0 	0 	0 	0 	0 	0 	0 	
maximum concurrent accesses to same row:
dram[0]:         0         0         0         0         0         0         0         0         0         0         0         0         0         0         0         0 
dram[1]:         0         0         0         0         0         0         0         0         0         0         0         0         0         0         0         0 
dram[2]:         0         0         0         0         0         0         0         0         0         0         0         0         0         0         0         0 
dram[3]:         0         0         0         0         0         0         0         0         0         0         0         0         0         0         0         0 
dram[4]:         0         0         0         0         0         0         0         0         0         0         0         0         0         0         0         0 
dram[5]:         0         0         0         0         0         0         0         0         0         0         0         0         0         0         0         0 
maximum service time to same row:
dram[0]:         0         0         0         0         0         0         0         0         0         0         0         0         0         0         0         0 
dram[1]:         0         0         0         0         0         0         0         0         0         0         0         0         0         0         0         0 
dram[2]:         0         0         0         0         0         0         0         0         0         0         0         0         0         0         0         0 
dram[3]:         0         0         0         0         0         0         0         0         0         0         0         0         0         0         0         0 
dram[4]:         0         0         0         0         0         0         0         0         0         0         0         0         0         0         0         0 
dram[5]:         0         0         0         0         0         0         0         0         0         0         0         0         0         0         0         0 
average row accesses per activate:
dram[0]:      -nan      -nan      -nan      -nan      -nan      -nan      -nan      -nan      -nan      -nan      -nan      -nan      -nan      -nan      -nan      -nan 
dram[1]:      -nan      -nan      -nan      -nan      -nan      -nan      -nan      -nan      -nan      -nan      -nan      -nan      -nan      -nan      -nan      -nan 
dram[2]:      -nan      -nan      -nan      -nan      -nan      -nan      -nan      -nan      -nan      -nan      -nan      -nan      -nan      -nan      -nan      -nan 
dram[3]:      -nan      -nan      -nan      -nan      -nan      -nan      -nan      -nan      -nan      -nan      -nan      -nan      -nan      -nan      -nan      -nan 
dram[4]:      -nan      -nan      -nan      -nan      -nan      -nan      -nan      -nan      -nan      -nan      -nan      -nan      -nan      -nan      -nan      -nan 
dram[5]:      -nan      -nan      -nan      -nan      -nan      -nan      -nan      -nan      -nan      -nan      -nan      -nan      -nan      -nan      -nan      -nan 
average row locality = 0/0 = -nan
number of total memory accesses made:
dram[0]:         0         0         0         0         0         0         0         0         0         0         0         0         0         0         0         0 
dram[1]:         0         0         0         0         0         0         0         0         0         0         0         0         0         0         0         0 
dram[2]:         0         0         0         0         0         0         0         0         0         0         0         0         0         0         0         0 
dram[3]:         0         0         0         0         0         0         0         0         0         0         0         0         0         0         0         0 
dram[4]:         0         0         0         0         0         0         0         0         0         0         0         0         0         0         0         0 
dram[5]:         0         0         0         0         0         0         0         0         0         0         0         0         0         0         0         0 
total accesses: 0
min_bank_accesses = 0!
min_chip_accesses = 0!
number of total read accesses:
dram[0]:         0         0         0         0         0         0         0         0         0         0         0         0         0         0         0         0 
dram[1]:         0         0         0         0         0         0         0         0         0         0         0         0         0         0         0         0 
dram[2]:         0         0         0         0         0         0         0         0         0         0         0         0         0         0         0         0 
dram[3]:         0         0         0         0         0         0         0         0         0         0         0         0         0         0         0         0 
dram[4]:         0         0         0         0         0         0         0         0         0         0         0         0         0         0         0         0 
dram[5]:         0         0         0         0         0         0         0         0         0         0         0         0         0         0         0         0 
total reads: 0
min_bank_accesses = 0!
min_chip_accesses = 0!
number of total write accesses:
dram[0]:         0         0         0         0         0         0         0         0         0         0         0         0         0         0         0         0 
dram[1]:         0         0         0         0         0         0         0         0         0         0         0         0         0         0         0         0 
dram[2]:         0         0         0         0         0         0         0         0         0         0         0         0         0         0         0         0 
dram[3]:         0         0         0         0         0         0         0         0         0         0         0         0         0         0         0         0 
dram[4]:         0         0         0         0         0         0         0         0         0         0         0         0         0         0         0         0 
dram[5]:         0         0         0         0         0         0         0         0         0         0         0         0         0         0         0         0 
total reads: 0
min_bank_accesses = 0!
min_chip_accesses = 0!
average mf latency per bank:
dram[0]:     none      none      none      none      none      none      none      none      none      none      none      none      none      none      none      none  
dram[1]:     none      none      none      none      none      none      none      none      none      none      none      none      none      none      none      none  
dram[2]:     none      none      none      none      none      none      none      none      none      none      none      none      none      none      none      none  
dram[3]:     none      none      none      none      none      none      none      none      none      none      none      none      none      none      none      none  
dram[4]:     none      none      none      none      none      none      none      none      none      none      none      none      none      none      none      none  
dram[5]:     none      none      none      none      none      none      none      none      none      none      none      none      none      none      none      none  
maximum mf latency per bank:
dram[0]:          0         0         0         0         0         0         0         0         0         0         0         0         0         0         0         0
dram[1]:          0         0         0         0         0         0         0         0         0         0         0         0         0         0         0         0
dram[2]:          0         0         0         0         0         0         0         0         0         0         0         0         0         0         0         0
dram[3]:          0         0         0         0         0         0         0         0         0         0         0         0         0         0         0         0
dram[4]:          0         0         0         0         0         0         0         0         0         0         0         0         0         0         0         0
dram[5]:          0         0         0         0         0         0         0         0         0         0         0         0         0         0         0         0

Number of Memory Banks Accessed per Memory Operation per Warp (from 0):
0	0	0	0	0	0	0	0	0	0	0	0	0	0	0	0	0	0	0	0	0	0	0	0	0	0	0	0	0	0	0	0	0	0	0	0	0	0	0	0	0	0	0	0	0	0	0	0	0	0	0	0	0	0	0	0	0	0	0	0	0	0	0	0	0	0	0	0	0	0	0	0	0	0	0	0	0	0	0	0	0	0	0	0	0	0	0	0	0	0	0	0	0	0	0	0	
Average # of Memory Banks Accessed per Memory Operation per Warp=-nan

position of mrq chosen
0	0	0	0	0	0	0	0	0	0	0	0	0	0	0	0	

average position of mrq chosen = -nan
Memory Partition 0: 
Cache L2_bank_000:
MSHR contents

Cache L2_bank_001:
MSHR contents

In Dram Latency Queue (total = 0): 
DRAM[0]: 16 bks, busW=4 BL=8 CL=12, tRRD=2 tCCD=6, tRCD=12 tRAS=28 tRP=12 tRC=40
n_cmd=0 n_nop=0 n_act=0 n_pre=0 n_req=0 n_rd=0 n_write=0 bw_util=-nan
n_activity=0 dram_eff=-nan
bk0: 0a 0i bk1: 0a 0i bk2: 0a 0i bk3: 0a 0i bk4: 0a 0i bk5: 0a 0i bk6: 0a 0i bk7: 0a 0i bk8: 0a 0i bk9: 0a 0i bk10: 0a 0i bk11: 0a 0i bk12: 0a 0i bk13: 0a 0i bk14: 0a 0i bk15: 0a 0i 
dram_util_bins: 0 0 0 0 0 0 0 0 0 0
dram_eff_bins: 0 0 0 0 0 0 0 0 0 0
mrqq: max=0 avg=-nan
Memory Partition 1: 
Cache L2_bank_002:
MSHR contents

Cache L2_bank_003:
MSHR contents

In Dram Latency Queue (total = 0): 
DRAM[1]: 16 bks, busW=4 BL=8 CL=12, tRRD=2 tCCD=6, tRCD=12 tRAS=28 tRP=12 tRC=40
n_cmd=0 n_nop=0 n_act=0 n_pre=0 n_req=0 n_rd=0 n_write=0 bw_util=-nan
n_activity=0 dram_eff=-nan
bk0: 0a 0i bk1: 0a 0i bk2: 0a 0i bk3: 0a 0i bk4: 0a 0i bk5: 0a 0i bk6: 0a 0i bk7: 0a 0i bk8: 0a 0i bk9: 0a 0i bk10: 0a 0i bk11: 0a 0i bk12: 0a 0i bk13: 0a 0i bk14: 0a 0i bk15: 0a 0i 
dram_util_bins: 0 0 0 0 0 0 0 0 0 0
dram_eff_bins: 0 0 0 0 0 0 0 0 0 0
mrqq: max=0 avg=-nan
Memory Partition 2: 
Cache L2_bank_004:
MSHR contents

Cache L2_bank_005:
MSHR contents

In Dram Latency Queue (total = 0): 
DRAM[2]: 16 bks, busW=4 BL=8 CL=12, tRRD=2 tCCD=6, tRCD=12 tRAS=28 tRP=12 tRC=40
n_cmd=0 n_nop=0 n_act=0 n_pre=0 n_req=0 n_rd=0 n_write=0 bw_util=-nan
n_activity=0 dram_eff=-nan
bk0: 0a 0i bk1: 0a 0i bk2: 0a 0i bk3: 0a 0i bk4: 0a 0i bk5: 0a 0i bk6: 0a 0i bk7: 0a 0i bk8: 0a 0i bk9: 0a 0i bk10: 0a 0i bk11: 0a 0i bk12: 0a 0i bk13: 0a 0i bk14: 0a 0i bk15: 0a 0i 
dram_util_bins: 0 0 0 0 0 0 0 0 0 0
dram_eff_bins: 0 0 0 0 0 0 0 0 0 0
mrqq: max=0 avg=-nan
Memory Partition 3: 
Cache L2_bank_006:
MSHR contents

Cache L2_bank_007:
MSHR contents

In Dram Latency Queue (total = 0): 
DRAM[3]: 16 bks, busW=4 BL=8 CL=12, tRRD=2 tCCD=6, tRCD=12 tRAS=28 tRP=12 tRC=40
n_cmd=0 n_nop=0 n_act=0 n_pre=0 n_req=0 n_rd=0 n_write=0 bw_util=-nan
n_activity=0 dram_eff=-nan
bk0: 0a 0i bk1: 0a 0i bk2: 0a 0i bk3: 0a 0i bk4: 0a 0i bk5: 0a 0i bk6: 0a 0i bk7: 0a 0i bk8: 0a 0i bk9: 0a 0i bk10: 0a 0i bk11: 0a 0i bk12: 0a 0i bk13: 0a 0i bk14: 0a 0i bk15: 0a 0i 
dram_util_bins: 0 0 0 0 0 0 0 0 0 0
dram_eff_bins: 0 0 0 0 0 0 0 0 0 0
mrqq: max=0 avg=-nan
Memory Partition 4: 
Cache L2_bank_008:
MSHR contents

Cache L2_bank_009:
MSHR contents

In Dram Latency Queue (total = 0): 
DRAM[4]: 16 bks, busW=4 BL=8 CL=12, tRRD=2 tCCD=6, tRCD=12 tRAS=28 tRP=12 tRC=40
n_cmd=0 n_nop=0 n_act=0 n_pre=0 n_req=0 n_rd=0 n_write=0 bw_util=-nan
n_activity=0 dram_eff=-nan
bk0: 0a 0i bk1: 0a 0i bk2: 0a 0i bk3: 0a 0i bk4: 0a 0i bk5: 0a 0i bk6: 0a 0i bk7: 0a 0i bk8: 0a 0i bk9: 0a 0i bk10: 0a 0i bk11: 0a 0i bk12: 0a 0i bk13: 0a 0i bk14: 0a 0i bk15: 0a 0i 
dram_util_bins: 0 0 0 0 0 0 0 0 0 0
dram_eff_bins: 0 0 0 0 0 0 0 0 0 0
mrqq: max=0 avg=-nan
Memory Partition 5: 
Cache L2_bank_010:
MSHR contents

Cache L2_bank_011:
MSHR contents

In Dram Latency Queue (total = 0): 
DRAM[5]: 16 bks, busW=4 BL=8 CL=12, tRRD=2 tCCD=6, tRCD=12 tRAS=28 tRP=12 tRC=40
n_cmd=0 n_nop=0 n_act=0 n_pre=0 n_req=0 n_rd=0 n_write=0 bw_util=-nan
n_activity=0 dram_eff=-nan
bk0: 0a 0i bk1: 0a 0i bk2: 0a 0i bk3: 0a 0i bk4: 0a 0i bk5: 0a 0i bk6: 0a 0i bk7: 0a 0i bk8: 0a 0i bk9: 0a 0i bk10: 0a 0i bk11: 0a 0i bk12: 0a 0i bk13: 0a 0i bk14: 0a 0i bk15: 0a 0i 
dram_util_bins: 0 0 0 0 0 0 0 0 0 0
dram_eff_bins: 0 0 0 0 0 0 0 0 0 0
mrqq: max=0 avg=-nan

========= L2 cache stats =========
L2_cache_bank[0]: Access = 0, Miss = 0, Miss_rate = -nan, Pending_hits = 0, Reservation_fails = 0
L2_cache_bank[1]: Access = 0, Miss = 0, Miss_rate = -nan, Pending_hits = 0, Reservation_fails = 0
L2_cache_bank[2]: Access = 0, Miss = 0, Miss_rate = -nan, Pending_hits = 0, Reservation_fails = 0
L2_cache_bank[3]: Access = 0, Miss = 0, Miss_rate = -nan, Pending_hits = 0, Reservation_fails = 0
L2_cache_bank[4]: Access = 0, Miss = 0, Miss_rate = -nan, Pending_hits = 0, Reservation_fails = 0
L2_cache_bank[5]: Access = 0, Miss = 0, Miss_rate = -nan, Pending_hits = 0, Reservation_fails = 0
L2_cache_bank[6]: Access = 0, Miss = 0, Miss_rate = -nan, Pending_hits = 0, Reservation_fails = 0
L2_cache_bank[7]: Access = 0, Miss = 0, Miss_rate = -nan, Pending_hits = 0, Reservation_fails = 0
L2_cache_bank[8]: Access = 0, Miss = 0, Miss_rate = -nan, Pending_hits = 0, Reservation_fails = 0
L2_cache_bank[9]: Access = 0, Miss = 0, Miss_rate = -nan, Pending_hits = 0, Reservation_fails = 0
L2_cache_bank[10]: Access = 0, Miss = 0, Miss_rate = -nan, Pending_hits = 0, Reservation_fails = 0
L2_cache_bank[11]: Access = 0, Miss = 0, Miss_rate = -nan, Pending_hits = 0, Reservation_fails = 0
L2_total_cache_accesses = 0
L2_total_cache_misses = 0
L2_total_cache_pending_hits = 0
L2_total_cache_reservation_fails = 0
L2_total_cache_breakdown:
L2_cache_data_port_util = 0.000
L2_cache_fill_port_util = 0.000

icnt_total_pkts_mem_to_simt=0
icnt_total_pkts_simt_to_mem=0
LD_mem_lat_dist  0 0 0 0 0 0 0 0 0 0 0 0 0 0 0 0 0 0 0 0 0 0 0 0 0 0 0
ST_mem_lat_dist  0 0 0 0 0 0 0 0 0 0 0 0 0 0 0 0 0 0 0 0 0 0 0 0 0 0 0
----------------------------Interconnect-DETAILS--------------------------------
Class 0:
Packet latency average = -nan
	minimum = nan
	maximum = -nan
Network latency average = -nan
	minimum = nan
	maximum = -nan
Slowest packet = -1
Flit latency average = -nan
	minimum = nan
	maximum = -nan
Slowest flit = -1
Fragmentation average = -nan
	minimum = nan
	maximum = -nan
Injected packet rate average = -nan
	minimum = -nan (at node 0)
	maximum = -nan (at node 0)
Accepted packet rate average = -nan
	minimum = -nan (at node 0)
	maximum = -nan (at node 0)
Injected flit rate average = -nan
	minimum = -nan (at node 0)
	maximum = -nan (at node 0)
Accepted flit rate average= -nan
	minimum = -nan (at node 0)
	maximum = -nan (at node 0)
Injected packet length average = -nan
Accepted packet length average = -nan
Total in-flight flits = 0 (0 measured)
====== Overall Traffic Statistics ======
====== Traffic class 0 ======
Packet latency average = -nan (1 samples)
	minimum = nan (1 samples)
	maximum = -nan (1 samples)
Network latency average = -nan (1 samples)
	minimum = nan (1 samples)
	maximum = -nan (1 samples)
Flit latency average = -nan (1 samples)
	minimum = nan (1 samples)
	maximum = -nan (1 samples)
Fragmentation average = -nan (1 samples)
	minimum = nan (1 samples)
	maximum = -nan (1 samples)
Injected packet rate average = -nan (1 samples)
	minimum = -nan (1 samples)
	maximum = -nan (1 samples)
Accepted packet rate average = -nan (1 samples)
	minimum = -nan (1 samples)
	maximum = -nan (1 samples)
Injected flit rate average = -nan (1 samples)
	minimum = -nan (1 samples)
	maximum = -nan (1 samples)
Accepted flit rate average = -nan (1 samples)
	minimum = -nan (1 samples)
	maximum = -nan (1 samples)
Injected packet size average = -nan (1 samples)
Accepted packet size average = -nan (1 samples)
Hops average = -nan (1 samples)
----------------------------END-of-Interconnect-DETAILS-------------------------
kernel_name = 
kernel_launch_uid = 
gpu_sim_cycle = 0
gpu_sim_insn = 0
gpu_ipc =         -nan
gpu_tot_sim_cycle = 0
gpu_tot_sim_insn = 0
gpu_tot_ipc =         -nan
gpu_tot_issued_cta = 0
max_total_param_size = 0
gpu_stall_dramfull = 0
gpu_stall_icnt2sh    = 0
gpu_total_sim_rate=0

========= Core RFC stats =========
	Total RFC Accesses     = 0
	Total RFC Misses       = 0
	Total RFC Read Misses  = 0
	Total RFC Write Misses = 0
	Total RFC Evictions    = 0

========= Core cache stats =========
L1I_cache:
	L1I_total_cache_accesses = 0
	L1I_total_cache_misses = 0
	L1I_total_cache_pending_hits = 0
	L1I_total_cache_reservation_fails = 0
L1D_cache:
	L1D_cache_core[0]: Access = 0, Miss = 0, Miss_rate = -nan, Pending_hits = 0, Reservation_fails = 0
	L1D_cache_core[1]: Access = 0, Miss = 0, Miss_rate = -nan, Pending_hits = 0, Reservation_fails = 0
	L1D_cache_core[2]: Access = 0, Miss = 0, Miss_rate = -nan, Pending_hits = 0, Reservation_fails = 0
	L1D_cache_core[3]: Access = 0, Miss = 0, Miss_rate = -nan, Pending_hits = 0, Reservation_fails = 0
	L1D_cache_core[4]: Access = 0, Miss = 0, Miss_rate = -nan, Pending_hits = 0, Reservation_fails = 0
	L1D_cache_core[5]: Access = 0, Miss = 0, Miss_rate = -nan, Pending_hits = 0, Reservation_fails = 0
	L1D_cache_core[6]: Access = 0, Miss = 0, Miss_rate = -nan, Pending_hits = 0, Reservation_fails = 0
	L1D_cache_core[7]: Access = 0, Miss = 0, Miss_rate = -nan, Pending_hits = 0, Reservation_fails = 0
	L1D_cache_core[8]: Access = 0, Miss = 0, Miss_rate = -nan, Pending_hits = 0, Reservation_fails = 0
	L1D_cache_core[9]: Access = 0, Miss = 0, Miss_rate = -nan, Pending_hits = 0, Reservation_fails = 0
	L1D_cache_core[10]: Access = 0, Miss = 0, Miss_rate = -nan, Pending_hits = 0, Reservation_fails = 0
	L1D_cache_core[11]: Access = 0, Miss = 0, Miss_rate = -nan, Pending_hits = 0, Reservation_fails = 0
	L1D_cache_core[12]: Access = 0, Miss = 0, Miss_rate = -nan, Pending_hits = 0, Reservation_fails = 0
	L1D_cache_core[13]: Access = 0, Miss = 0, Miss_rate = -nan, Pending_hits = 0, Reservation_fails = 0
	L1D_cache_core[14]: Access = 0, Miss = 0, Miss_rate = -nan, Pending_hits = 0, Reservation_fails = 0
	L1D_total_cache_accesses = 0
	L1D_total_cache_misses = 0
	L1D_total_cache_pending_hits = 0
	L1D_total_cache_reservation_fails = 0
	L1D_cache_data_port_util = 0.000
	L1D_cache_fill_port_util = 0.000
L1C_cache:
	L1C_total_cache_accesses = 0
	L1C_total_cache_misses = 0
	L1C_total_cache_pending_hits = 0
	L1C_total_cache_reservation_fails = 0
L1T_cache:
	L1T_total_cache_accesses = 0
	L1T_total_cache_misses = 0
	L1T_total_cache_pending_hits = 0
	L1T_total_cache_reservation_fails = 0

Total_core_cache_stats:
Shader 0 warp_id issue ditsribution:
warp_id:

distro:

gpgpu_n_tot_thrd_icount = 0
gpgpu_n_tot_w_icount = 0
gpgpu_n_stall_shd_mem = 0
gpgpu_n_mem_read_local = 0
gpgpu_n_mem_write_local = 0
gpgpu_n_mem_read_global = 0
gpgpu_n_mem_write_global = 0
gpgpu_n_mem_texture = 0
gpgpu_n_mem_const = 0
gpgpu_n_load_insn  = 0
gpgpu_n_store_insn = 0
gpgpu_n_shmem_insn = 0
gpgpu_n_tex_insn = 0
gpgpu_n_const_mem_insn = 0
gpgpu_n_param_mem_insn = 0
gpgpu_n_shmem_bkconflict = 0
gpgpu_n_cache_bkconflict = 0
gpgpu_n_intrawarp_mshr_merge = 0
gpgpu_n_cmem_portconflict = 0
gpgpu_stall_shd_mem[c_mem][bk_conf] = 0
gpgpu_stall_shd_mem[c_mem][mshr_rc] = 0
gpgpu_stall_shd_mem[c_mem][icnt_rc] = 0
gpgpu_stall_shd_mem[c_mem][data_port_stall] = 0
gpgpu_stall_shd_mem[t_mem][mshr_rc] = 0
gpgpu_stall_shd_mem[t_mem][icnt_rc] = 0
gpgpu_stall_shd_mem[t_mem][data_port_stall] = 0
gpgpu_stall_shd_mem[s_mem][bk_conf] = 0
gpgpu_stall_shd_mem[gl_mem][bk_conf] = 0
gpgpu_stall_shd_mem[gl_mem][coal_stall] = 0
gpgpu_stall_shd_mem[gl_mem][data_port_stall] = 0
gpgpu_stall_shd_mem[g_mem_ld][mshr_rc] = 0
gpgpu_stall_shd_mem[g_mem_ld][icnt_rc] = 0
gpgpu_stall_shd_mem[g_mem_ld][wb_icnt_rc] = 0
gpgpu_stall_shd_mem[g_mem_ld][wb_rsrv_fail] = 0
gpgpu_stall_shd_mem[g_mem_st][mshr_rc] = 0
gpgpu_stall_shd_mem[g_mem_st][icnt_rc] = 0
gpgpu_stall_shd_mem[g_mem_st][wb_icnt_rc] = 0
gpgpu_stall_shd_mem[g_mem_st][wb_rsrv_fail] = 0
gpgpu_stall_shd_mem[l_mem_ld][mshr_rc] = 0
gpgpu_stall_shd_mem[l_mem_ld][icnt_rc] = 0
gpgpu_stall_shd_mem[l_mem_ld][wb_icnt_rc] = 0
gpgpu_stall_shd_mem[l_mem_ld][wb_rsrv_fail] = 0
gpgpu_stall_shd_mem[l_mem_st][mshr_rc] = 0
gpgpu_stall_shd_mem[l_mem_st][icnt_rc] = 0
gpgpu_stall_shd_mem[l_mem_ld][wb_icnt_rc] = 0
gpgpu_stall_shd_mem[l_mem_ld][wb_rsrv_fail] = 0
gpu_reg_bank_conflict_stalls = 0
Warp Occupancy Distribution:
Stall:0	W0_Idle:0	W0_Scoreboard:0	W1:0	W2:0	W3:0	W4:0	W5:0	W6:0	W7:0	W8:0	W9:0	W10:0	W11:0	W12:0	W13:0	W14:0	W15:0	W16:0	W17:0	W18:0	W19:0	W20:0	W21:0	W22:0	W23:0	W24:0	W25:0	W26:0	W27:0	W28:0	W29:0	W30:0	W31:0	W32:0
maxmrqlatency = 0 
maxdqlatency = 0 
maxmflatency = 0 
max_icnt2mem_latency = 0 
max_icnt2sh_latency = 0 
mrq_lat_table:0 	0 	0 	0 	0 	0 	0 	0 	0 	0 	0 	0 	0 	0 	0 	0 	0 	0 	0 	0 	0 	0 	0 	0 	0 	0 	0 	0 	0 	0 	0 	0 	
dq_lat_table:0 	0 	0 	0 	0 	0 	0 	0 	0 	0 	0 	0 	0 	0 	0 	0 	0 	0 	0 	0 	0 	0 	0 	0 	0 	0 	0 	0 	0 	0 	0 	0 	
mf_lat_table:0 	0 	0 	0 	0 	0 	0 	0 	0 	0 	0 	0 	0 	0 	0 	0 	0 	0 	0 	0 	0 	0 	0 	0 	0 	0 	0 	0 	0 	0 	0 	0 	
icnt2mem_lat_table:0 	0 	0 	0 	0 	0 	0 	0 	0 	0 	0 	0 	0 	0 	0 	0 	0 	0 	0 	0 	0 	0 	0 	0 	
icnt2sh_lat_table:0 	0 	0 	0 	0 	0 	0 	0 	0 	0 	0 	0 	0 	0 	0 	0 	0 	0 	0 	0 	0 	0 	0 	0 	
mf_lat_pw_table:0 	0 	0 	0 	0 	0 	0 	0 	0 	0 	0 	0 	0 	0 	0 	0 	0 	0 	0 	0 	0 	0 	0 	0 	0 	0 	0 	0 	0 	0 	0 	0 	
maximum concurrent accesses to same row:
dram[0]:         0         0         0         0         0         0         0         0         0         0         0         0         0         0         0         0 
dram[1]:         0         0         0         0         0         0         0         0         0         0         0         0         0         0         0         0 
dram[2]:         0         0         0         0         0         0         0         0         0         0         0         0         0         0         0         0 
dram[3]:         0         0         0         0         0         0         0         0         0         0         0         0         0         0         0         0 
dram[4]:         0         0         0         0         0         0         0         0         0         0         0         0         0         0         0         0 
dram[5]:         0         0         0         0         0         0         0         0         0         0         0         0         0         0         0         0 
maximum service time to same row:
dram[0]:         0         0         0         0         0         0         0         0         0         0         0         0         0         0         0         0 
dram[1]:         0         0         0         0         0         0         0         0         0         0         0         0         0         0         0         0 
dram[2]:         0         0         0         0         0         0         0         0         0         0         0         0         0         0         0         0 
dram[3]:         0         0         0         0         0         0         0         0         0         0         0         0         0         0         0         0 
dram[4]:         0         0         0         0         0         0         0         0         0         0         0         0         0         0         0         0 
dram[5]:         0         0         0         0         0         0         0         0         0         0         0         0         0         0         0         0 
average row accesses per activate:
dram[0]:      -nan      -nan      -nan      -nan      -nan      -nan      -nan      -nan      -nan      -nan      -nan      -nan      -nan      -nan      -nan      -nan 
dram[1]:      -nan      -nan      -nan      -nan      -nan      -nan      -nan      -nan      -nan      -nan      -nan      -nan      -nan      -nan      -nan      -nan 
dram[2]:      -nan      -nan      -nan      -nan      -nan      -nan      -nan      -nan      -nan      -nan      -nan      -nan      -nan      -nan      -nan      -nan 
dram[3]:      -nan      -nan      -nan      -nan      -nan      -nan      -nan      -nan      -nan      -nan      -nan      -nan      -nan      -nan      -nan      -nan 
dram[4]:      -nan      -nan      -nan      -nan      -nan      -nan      -nan      -nan      -nan      -nan      -nan      -nan      -nan      -nan      -nan      -nan 
dram[5]:      -nan      -nan      -nan      -nan      -nan      -nan      -nan      -nan      -nan      -nan      -nan      -nan      -nan      -nan      -nan      -nan 
average row locality = 0/0 = -nan
number of total memory accesses made:
dram[0]:         0         0         0         0         0         0         0         0         0         0         0         0         0         0         0         0 
dram[1]:         0         0         0         0         0         0         0         0         0         0         0         0         0         0         0         0 
dram[2]:         0         0         0         0         0         0         0         0         0         0         0         0         0         0         0         0 
dram[3]:         0         0         0         0         0         0         0         0         0         0         0         0         0         0         0         0 
dram[4]:         0         0         0         0         0         0         0         0         0         0         0         0         0         0         0         0 
dram[5]:         0         0         0         0         0         0         0         0         0         0         0         0         0         0         0         0 
total accesses: 0
min_bank_accesses = 0!
min_chip_accesses = 0!
number of total read accesses:
dram[0]:         0         0         0         0         0         0         0         0         0         0         0         0         0         0         0         0 
dram[1]:         0         0         0         0         0         0         0         0         0         0         0         0         0         0         0         0 
dram[2]:         0         0         0         0         0         0         0         0         0         0         0         0         0         0         0         0 
dram[3]:         0         0         0         0         0         0         0         0         0         0         0         0         0         0         0         0 
dram[4]:         0         0         0         0         0         0         0         0         0         0         0         0         0         0         0         0 
dram[5]:         0         0         0         0         0         0         0         0         0         0         0         0         0         0         0         0 
total reads: 0
min_bank_accesses = 0!
min_chip_accesses = 0!
number of total write accesses:
dram[0]:         0         0         0         0         0         0         0         0         0         0         0         0         0         0         0         0 
dram[1]:         0         0         0         0         0         0         0         0         0         0         0         0         0         0         0         0 
dram[2]:         0         0         0         0         0         0         0         0         0         0         0         0         0         0         0         0 
dram[3]:         0         0         0         0         0         0         0         0         0         0         0         0         0         0         0         0 
dram[4]:         0         0         0         0         0         0         0         0         0         0         0         0         0         0         0         0 
dram[5]:         0         0         0         0         0         0         0         0         0         0         0         0         0         0         0         0 
total reads: 0
min_bank_accesses = 0!
min_chip_accesses = 0!
average mf latency per bank:
dram[0]:     none      none      none      none      none      none      none      none      none      none      none      none      none      none      none      none  
dram[1]:     none      none      none      none      none      none      none      none      none      none      none      none      none      none      none      none  
dram[2]:     none      none      none      none      none      none      none      none      none      none      none      none      none      none      none      none  
dram[3]:     none      none      none      none      none      none      none      none      none      none      none      none      none      none      none      none  
dram[4]:     none      none      none      none      none      none      none      none      none      none      none      none      none      none      none      none  
dram[5]:     none      none      none      none      none      none      none      none      none      none      none      none      none      none      none      none  
maximum mf latency per bank:
dram[0]:          0         0         0         0         0         0         0         0         0         0         0         0         0         0         0         0
dram[1]:          0         0         0         0         0         0         0         0         0         0         0         0         0         0         0         0
dram[2]:          0         0         0         0         0         0         0         0         0         0         0         0         0         0         0         0
dram[3]:          0         0         0         0         0         0         0         0         0         0         0         0         0         0         0         0
dram[4]:          0         0         0         0         0         0         0         0         0         0         0         0         0         0         0         0
dram[5]:          0         0         0         0         0         0         0         0         0         0         0         0         0         0         0         0

Number of Memory Banks Accessed per Memory Operation per Warp (from 0):
0	0	0	0	0	0	0	0	0	0	0	0	0	0	0	0	0	0	0	0	0	0	0	0	0	0	0	0	0	0	0	0	0	0	0	0	0	0	0	0	0	0	0	0	0	0	0	0	0	0	0	0	0	0	0	0	0	0	0	0	0	0	0	0	0	0	0	0	0	0	0	0	0	0	0	0	0	0	0	0	0	0	0	0	0	0	0	0	0	0	0	0	0	0	0	0	
Average # of Memory Banks Accessed per Memory Operation per Warp=-nan

position of mrq chosen
0	0	0	0	0	0	0	0	0	0	0	0	0	0	0	0	

average position of mrq chosen = -nan
Memory Partition 0: 
Cache L2_bank_000:
MSHR contents

Cache L2_bank_001:
MSHR contents

In Dram Latency Queue (total = 0): 
DRAM[0]: 16 bks, busW=4 BL=8 CL=12, tRRD=2 tCCD=6, tRCD=12 tRAS=28 tRP=12 tRC=40
n_cmd=0 n_nop=0 n_act=0 n_pre=0 n_req=0 n_rd=0 n_write=0 bw_util=-nan
n_activity=0 dram_eff=-nan
bk0: 0a 0i bk1: 0a 0i bk2: 0a 0i bk3: 0a 0i bk4: 0a 0i bk5: 0a 0i bk6: 0a 0i bk7: 0a 0i bk8: 0a 0i bk9: 0a 0i bk10: 0a 0i bk11: 0a 0i bk12: 0a 0i bk13: 0a 0i bk14: 0a 0i bk15: 0a 0i 
dram_util_bins: 0 0 0 0 0 0 0 0 0 0
dram_eff_bins: 0 0 0 0 0 0 0 0 0 0
mrqq: max=0 avg=-nan
Memory Partition 1: 
Cache L2_bank_002:
MSHR contents

Cache L2_bank_003:
MSHR contents

In Dram Latency Queue (total = 0): 
DRAM[1]: 16 bks, busW=4 BL=8 CL=12, tRRD=2 tCCD=6, tRCD=12 tRAS=28 tRP=12 tRC=40
n_cmd=0 n_nop=0 n_act=0 n_pre=0 n_req=0 n_rd=0 n_write=0 bw_util=-nan
n_activity=0 dram_eff=-nan
bk0: 0a 0i bk1: 0a 0i bk2: 0a 0i bk3: 0a 0i bk4: 0a 0i bk5: 0a 0i bk6: 0a 0i bk7: 0a 0i bk8: 0a 0i bk9: 0a 0i bk10: 0a 0i bk11: 0a 0i bk12: 0a 0i bk13: 0a 0i bk14: 0a 0i bk15: 0a 0i 
dram_util_bins: 0 0 0 0 0 0 0 0 0 0
dram_eff_bins: 0 0 0 0 0 0 0 0 0 0
mrqq: max=0 avg=-nan
Memory Partition 2: 
Cache L2_bank_004:
MSHR contents

Cache L2_bank_005:
MSHR contents

In Dram Latency Queue (total = 0): 
DRAM[2]: 16 bks, busW=4 BL=8 CL=12, tRRD=2 tCCD=6, tRCD=12 tRAS=28 tRP=12 tRC=40
n_cmd=0 n_nop=0 n_act=0 n_pre=0 n_req=0 n_rd=0 n_write=0 bw_util=-nan
n_activity=0 dram_eff=-nan
[...]
mf_lat_table:0 	0 	0 	0 	0 	0 	0 	395967 	1205990 	331830 	1413 	0 	0 	0 	0 	0 	0 	0 	0 	0 	0 	0 	0 	0 	0 	0 	0 	0 	0 	0 	0 	0 	
icnt2mem_lat_table:0 	0 	0 	732495 	354310 	337472 	352713 	209673 	93888 	1855 	0 	0 	0 	0 	0 	0 	0 	0 	0 	0 	0 	0 	0 	0 	
icnt2sh_lat_table:0 	0 	0 	171173 	631351 	434469 	30861 	100 	0 	0 	0 	142 	481 	1040 	2855 	20629 	22747 	65097 	100512 	210768 	242975 	0 	0 	0 	
mf_lat_pw_table:0 	0 	0 	0 	0 	0 	0 	434 	3625 	18 	0 	0 	0 	0 	0 	0 	0 	0 	0 	0 	0 	0 	0 	0 	0 	0 	0 	0 	0 	0 	0 	0 	
maximum concurrent accesses to same row:
dram[0]:        20        20        30        22        30        18        18        20        20        28        20        24        50        50        22        14 
dram[1]:        20        18        28        18        22        14        20        12        26        22        28        28        26        36        32        30 
dram[2]:        24        24        18        28        14        16        22        22        22        16        22        24        18        20        24        52 
dram[3]:        24        34        28        32        20        24        20        24        30        22        36        34        24        16        16        34 
dram[4]:        28        30        28        24        14        18        16        16        22        26        38        42        32        26        20        20 
dram[5]:        20        18        18        30        16        20        14        16        22        34        20        20        40        48        22        16 
maximum service time to same row:
dram[0]:     32725     31945     70377     45201     27994     39270     45108     36072     41985     54475     41686     42562     41667     26347     42105     51906 
dram[1]:     19835     21201     37656     34249     32972     40891     22498     24406     23785     31672     30160     26293     32663     23618     21972     24062 
dram[2]:     36199     33540     29711     39568     26220     47506     32065     26170     29011     26369     34434     25926     18711     26095     34889     31325 
dram[3]:     50883     38254     28375     46588     21120     30604     57937     46078     32509     26217     27481     34428     41470     39016     45640     59564 
dram[4]:     35812     26312     32487     33176     31106     36828     39369     24717     23983     27422     41407     24528     27583     36852     19978     42801 
dram[5]:     45793     25399     28979     44172     22094     33023     33653     29508     28891     32091     26907     34272     22684     31593     22483     27616 
average row accesses per activate:
dram[0]:  1.772187  1.789430  1.772434  1.753743  1.737876  1.732191  1.740877  1.721547  1.731583  1.738042  1.729453  1.736737  1.733810  1.752175  1.741085  1.736689 
dram[1]:  1.765262  1.777584  1.739669  1.736441  1.714245  1.727352  1.720770  1.717488  1.715545  1.719974  1.701227  1.720655  1.724738  1.731629  1.725953  1.714428 
dram[2]:  1.764205  1.763704  1.737659  1.741409  1.734150  1.730304  1.697592  1.705502  1.726177  1.716512  1.713316  1.710331  1.712211  1.719928  1.728670  1.728706 
dram[3]:  1.777016  1.782121  1.775159  1.759410  1.735629  1.749580  1.711561  1.730672  1.721416  1.709509  1.736887  1.733213  1.719694  1.736309  1.753370  1.730168 
dram[4]:  1.752645  1.762424  1.751050  1.741144  1.722883  1.734215  1.718661  1.701945  1.720601  1.715080  1.703665  1.714045  1.705910  1.731894  1.719201  1.722553 
dram[5]:  1.749267  1.763969  1.746725  1.748570  1.716571  1.730560  1.725010  1.715581  1.719652  1.725331  1.698276  1.720820  1.705415  1.722509  1.727264  1.733051 
average row locality = 1706724/985364 = 1.732075
number of total memory accesses made:
dram[0]:         0         0         0         0         0         0         0         0         0         0         0         0         0         0         0         0 
dram[1]:         0         0         0         0         0         0         0         0         0         0         0         0         0         0         0         0 
dram[2]:         0         0         0         0         0         0         0         0         0         0         0         0         0         0         0         0 
dram[3]:         0         0         0         0         0         0         0         0         0         0         0         0         0         0         0         0 
dram[4]:         0         0         0         0         0         0         0         0         0         0         0         0         0         0         0         0 
dram[5]:         0         0         0         0         0         0         0         0         0         0         0         0         0         0         0         0 
total accesses: 0
min_bank_accesses = 0!
min_chip_accesses = 0!
number of total read accesses:
dram[0]:     11565     11640     11537     11486     11854     11784     11813     11776     12169     12327     12262     12193     12305     12397     11799     11819 
dram[1]:     11686     11624     11477     11531     11816     11665     11758     11886     12241     12232     12171     12179     12337     12312     11796     11737 
dram[2]:     11720     11520     11522     11479     11785     11635     11697     11753     12138     12302     12128     12119     12268     12265     11670     11733 
dram[3]:     11692     11483     11519     11402     11782     11656     11736     11738     12202     12193     12234     12191     12179     12158     11749     11732 
dram[4]:     11669     11439     11389     11380     11754     11711     11763     11819     12244     12272     12092     12164     12240     12227     11654     11628 
dram[5]:     11655     11513     11474     11434     11641     11727     11655     11782     12199     12114     12074     12103     12194     12193     11682     11723 
total reads: 1139162
bank skew: 12397/11380 = 1.09
chip skew: 190726/189163 = 1.01
number of total write accesses:
dram[0]:      5588      5696      5746      5734      6100      6113      6172      6209      6165      6204      6129      6107      5874      5929      5436      5468 
dram[1]:      5693      5695      5784      5790      6103      6106      6212      6273      6244      6213      6124      6115      5909      5903      5448      5445 
dram[2]:      5668      5662      5726      5700      6049      6111      6143      6194      6194      6202      6040      6108      5890      5937      5430      5478 
dram[3]:      5673      5661      5732      5659      6062      6041      6119      6126      6181      6162      6144      6110      5809      5851      5420      5433 
dram[4]:      5726      5690      5703      5725      6052      6115      6252      6208      6206      6232      6081      6118      5887      5899      5385      5427 
dram[5]:      5647      5661      5726      5681      6062      6122      6223      6187      6203      6140      6050      6105      5851      5852      5449      5455 
total reads: 567562
bank skew: 6273/5385 = 1.16
chip skew: 95057/94183 = 1.01
average mf latency per bank:
dram[0]:        432       433       443       444       439       440       422       428       439       445       448       448       435       437       446       448
dram[1]:        411       415       425       429       422       424       409       410       421       427       427       429       417       423       426       430
dram[2]:        422       416       436       429       430       424       419       412       432       421       435       428       426       422       443       431
dram[3]:        421       417       434       428       431       423       420       414       430       424       436       429       432       425       440       429
dram[4]:        413       419       427       431       422       425       411       412       420       425       431       434       422       426       427       430
dram[5]:        413       420       429       437       420       431       410       417       425       434       430       440       424       430       432       437
maximum mf latency per bank:
dram[0]:       1382      1210      1194      1149      1206      1219      1237      1268      1225      1215      1225      1225      1134      1189      1237      1366
dram[1]:       1122      1340      1143      1329      1066      1257      1203      1126      1139      1430      1106      1448      1246      1256      1322      1205
dram[2]:       1260      1480      1281      1205      1232      1331      1196      1492      1136      1317      1174      1281      1178      1593      1355      1341
dram[3]:       1092      1084      1141      1183      1290      1167      1252      1272      1178      1058      1356      1289      1288      1256      1532      1226
dram[4]:       1093      1357      1155      1414      1137      1473      1282      1202      1450      1427      1255      1399      1109      1190      1177      1307
dram[5]:       1079      1157      1262      1215      1252      1332      1064      1143      1157      1396      1249      1194      1211      1293      1109      1290

Number of Memory Banks Accessed per Memory Operation per Warp (from 0):
0	0	0	0	0	0	0	0	0	0	0	0	0	0	0	0	0	0	0	0	0	0	0	0	0	0	0	0	0	0	0	0	0	0	0	0	0	0	0	0	0	0	0	0	0	0	0	0	0	0	0	0	0	0	0	0	0	0	0	0	0	0	0	0	0	0	0	0	0	0	0	0	0	0	0	0	0	0	0	0	0	0	0	0	0	0	0	0	0	0	0	0	0	0	0	0	
Average # of Memory Banks Accessed per Memory Operation per Warp=-nan

position of mrq chosen
0	0	0	0	0	0	0	0	0	0	0	0	0	0	0	0	

average position of mrq chosen = -nan
Memory Partition 0: 
Cache L2_bank_000:
MSHR contents

Cache L2_bank_001:
MSHR contents

In Dram Latency Queue (total = 0): 
DRAM[0]: 16 bks, busW=4 BL=8 CL=12, tRRD=2 tCCD=6, tRCD=12 tRAS=28 tRP=12 tRC=40
n_cmd=2747588 n_nop=1869517 n_act=163611 n_pre=163595 n_req=285396 n_rd=381452 n_write=169413 bw_util=0.401
n_activity=2105210 dram_eff=0.5233
bk0: 23130a 2051801i bk1: 23280a 2028188i bk2: 23074a 2022285i bk3: 22972a 2011019i bk4: 23708a 2007940i bk5: 23568a 1987235i bk6: 23626a 1981033i bk7: 23552a 1956744i bk8: 24338a 1997171i bk9: 24654a 1964635i bk10: 24524a 1962621i bk11: 24386a 1946832i bk12: 24610a 2006673i bk13: 24794a 1985256i bk14: 23598a 2025358i bk15: 23638a 2005446i 
dram_util_bins: 0 0 0 0 0 0 0 0 0 0
dram_eff_bins: 0 0 0 0 0 0 0 0 0 0
mrqq: max=16 avg=5.51456
Memory Partition 1: 
Cache L2_bank_002:
MSHR contents

Cache L2_bank_003:
MSHR contents

In Dram Latency Queue (total = 0): 
DRAM[1]: 16 bks, busW=4 BL=8 CL=12, tRRD=2 tCCD=6, tRCD=12 tRAS=28 tRP=12 tRC=40
n_cmd=2747588 n_nop=1865827 n_act=165251 n_pre=165235 n_req=285505 n_rd=380896 n_write=170379 bw_util=0.4013
n_activity=2141080 dram_eff=0.515
bk0: 23372a 2048498i bk1: 23248a 2042550i bk2: 22954a 2026506i bk3: 23062a 2010015i bk4: 23632a 2012391i bk5: 23330a 1995976i bk6: 23516a 1990600i bk7: 23772a 1960579i bk8: 24482a 1992474i bk9: 24464a 1975299i bk10: 24342a 1977093i bk11: 24358a 1961047i bk12: 24674a 2010798i bk13: 24624a 1993064i bk14: 23592a 2033549i bk15: 23474a 2014283i 
dram_util_bins: 0 0 0 0 0 0 0 0 0 0
dram_eff_bins: 0 0 0 0 0 0 0 0 0 0
mrqq: max=16 avg=5.31545
Memory Partition 2: 
Cache L2_bank_004:
MSHR contents

Cache L2_bank_005:
MSHR contents

In Dram Latency Queue (total = 0): 
DRAM[2]: 16 bks, busW=4 BL=8 CL=12, tRRD=2 tCCD=6, tRCD=12 tRAS=28 tRP=12 tRC=40
n_cmd=2747588 n_nop=1869297 n_act=164667 n_pre=164651 n_req=284266 n_rd=379468 n_write=169505 bw_util=0.3996
n_activity=2118196 dram_eff=0.5183
bk0: 23440a 2047603i bk1: 23040a 2043196i bk2: 23044a 2026323i bk3: 22958a 2010348i bk4: 23570a 2020617i bk5: 23270a 1999353i bk6: 23394a 1985231i bk7: 23506a 1963915i bk8: 24276a 1999949i bk9: 24604a 1973936i bk10: 24256a 1976650i bk11: 24238a 1960221i bk12: 24536a 2002645i bk13: 24530a 1987927i bk14: 23340a 2027273i bk15: 23466a 2011477i 
dram_util_bins: 0 0 0 0 0 0 0 0 0 0
dram_eff_bins: 0 0 0 0 0 0 0 0 0 0
mrqq: max=16 avg=5.30759
Memory Partition 3: 
Cache L2_bank_006:
MSHR contents

Cache L2_bank_007:
MSHR contents

In Dram Latency Queue (total = 0): 
DRAM[3]: 16 bks, busW=4 BL=8 CL=12, tRRD=2 tCCD=6, tRCD=12 tRAS=28 tRP=12 tRC=40
n_cmd=2747588 n_nop=1873512 n_act=163062 n_pre=163046 n_req=283829 n_rd=379292 n_write=168676 bw_util=0.3989
n_activity=2102946 dram_eff=0.5211
bk0: 23384a 2051792i bk1: 22966a 2041831i bk2: 23038a 2030849i bk3: 22804a 2025739i bk4: 23564a 2012136i bk5: 23312a 2006966i bk6: 23472a 1987567i bk7: 23476a 1976359i bk8: 24404a 1989557i bk9: 24386a 1977738i bk10: 24468a 1976524i bk11: 24382a 1963844i bk12: 24358a 2019889i bk13: 24316a 1999412i bk14: 23498a 2032480i bk15: 23464a 2013823i 
dram_util_bins: 0 0 0 0 0 0 0 0 0 0
dram_eff_bins: 0 0 0 0 0 0 0 0 0 0
mrqq: max=16 avg=5.37513
Memory Partition 4: 
Cache L2_bank_008:
MSHR contents
MSHR: tag=0xc0063400, atomic=0 1 entries : 0x7ff32475c280 :  mf: uid=22326069, sid03:w09, part=4, addr=0xc0063460, load , size=32, unknown  status = IN_PARTITION_DRAM (2081504), 

Cache L2_bank_009:
MSHR contents

In Dram Latency Queue (total = 0): 
DRAM[4]: 16 bks, busW=4 BL=8 CL=12, tRRD=2 tCCD=6, tRCD=12 tRAS=28 tRP=12 tRC=40
n_cmd=2747588 n_nop=1869581 n_act=164668 n_pre=164652 n_req=284151 n_rd=378890 n_write=169797 bw_util=0.3994
n_activity=2133395 dram_eff=0.5144
bk0: 23338a 2047533i bk1: 22878a 2041865i bk2: 22778a 2042770i bk3: 22760a 2021955i bk4: 23508a 2020639i bk5: 23422a 2000657i bk6: 23526a 1981782i bk7: 23638a 1966836i bk8: 24488a 1993199i bk9: 24544a 1974015i bk10: 24184a 1977878i bk11: 24328a 1957973i bk12: 24480a 2007301i bk13: 24454a 1994764i bk14: 23308a 2038614i bk15: 23256a 2023114i 
dram_util_bins: 0 0 0 0 0 0 0 0 0 0
dram_eff_bins: 0 0 0 0 0 0 0 0 0 0
mrqq: max=16 avg=5.21764
Memory Partition 5: 
Cache L2_bank_010:
MSHR contents

Cache L2_bank_011:
MSHR contents

In Dram Latency Queue (total = 0): 
DRAM[5]: 16 bks, busW=4 BL=8 CL=12, tRRD=2 tCCD=6, tRCD=12 tRAS=28 tRP=12 tRC=40
n_cmd=2747588 n_nop=1871739 n_act=164158 n_pre=164142 n_req=283577 n_rd=378326 n_write=169223 bw_util=0.3986
n_activity=2119875 dram_eff=0.5166
bk0: 23310a 2051004i bk1: 23026a 2036599i bk2: 22948a 2029993i bk3: 22868a 2012715i bk4: 23282a 2023055i bk5: 23454a 1995917i bk6: 23310a 1986890i bk7: 23564a 1961721i bk8: 24398a 1995088i bk9: 24228a 1980752i bk10: 24148a 1973468i bk11: 24206a 1956641i bk12: 24388a 2009743i bk13: 24386a 1998614i bk14: 23364a 2028503i bk15: 23446a 2012298i 
dram_util_bins: 0 0 0 0 0 0 0 0 0 0
dram_eff_bins: 0 0 0 0 0 0 0 0 0 0
mrqq: max=16 avg=5.28626

========= L2 cache stats =========
L2_cache_bank[0]: Access = 177614, Miss = 95304, Miss_rate = 0.537, Pending_hits = 4411, Reservation_fails = 15452
L2_cache_bank[1]: Access = 180138, Miss = 95422, Miss_rate = 0.530, Pending_hits = 4672, Reservation_fails = 20380
L2_cache_bank[2]: Access = 172891, Miss = 95282, Miss_rate = 0.551, Pending_hits = 4638, Reservation_fails = 11609
L2_cache_bank[3]: Access = 171605, Miss = 95166, Miss_rate = 0.555, Pending_hits = 4682, Reservation_fails = 13870
L2_cache_bank[4]: Access = 175775, Miss = 94928, Miss_rate = 0.540, Pending_hits = 4374, Reservation_fails = 14955
L2_cache_bank[5]: Access = 171589, Miss = 94806, Miss_rate = 0.553, Pending_hits = 4420, Reservation_fails = 17048
L2_cache_bank[6]: Access = 170637, Miss = 95093, Miss_rate = 0.557, Pending_hits = 4602, Reservation_fails = 19180
L2_cache_bank[7]: Access = 169663, Miss = 94553, Miss_rate = 0.557, Pending_hits = 4465, Reservation_fails = 18021
L2_cache_bank[8]: Access = 172840, Miss = 94805, Miss_rate = 0.549, Pending_hits = 4668, Reservation_fails = 12545
L2_cache_bank[9]: Access = 174845, Miss = 94640, Miss_rate = 0.541, Pending_hits = 4574, Reservation_fails = 14731
L2_cache_bank[10]: Access = 172755, Miss = 94574, Miss_rate = 0.547, Pending_hits = 4514, Reservation_fails = 14290
L2_cache_bank[11]: Access = 172054, Miss = 94589, Miss_rate = 0.550, Pending_hits = 4609, Reservation_fails = 20038
L2_total_cache_accesses = 2082406
L2_total_cache_misses = 1139162
L2_total_cache_miss_rate = 0.5470
L2_total_cache_pending_hits = 54629
L2_total_cache_reservation_fails = 192119
L2_total_cache_breakdown:
	L2_cache_stats_breakdown[GLOBAL_ACC_R][HIT] = 447726
	L2_cache_stats_breakdown[GLOBAL_ACC_R][HIT_RESERVED] = 31086
	L2_cache_stats_breakdown[GLOBAL_ACC_R][MISS] = 654607
	L2_cache_stats_breakdown[GLOBAL_ACC_R][RESERVATION_FAIL] = 103591
	L2_cache_stats_breakdown[LOCAL_ACC_R][HIT] = 1802
	L2_cache_stats_breakdown[LOCAL_ACC_R][HIT_RESERVED] = 7
	L2_cache_stats_breakdown[LOCAL_ACC_R][MISS] = 132696
	L2_cache_stats_breakdown[LOCAL_ACC_R][RESERVATION_FAIL] = 18633
	L2_cache_stats_breakdown[CONST_ACC_R][HIT] = 20
	L2_cache_stats_breakdown[CONST_ACC_R][HIT_RESERVED] = 2
	L2_cache_stats_breakdown[CONST_ACC_R][MISS] = 8
	L2_cache_stats_breakdown[GLOBAL_ACC_W][HIT] = 288138
	L2_cache_stats_breakdown[GLOBAL_ACC_W][HIT_RESERVED] = 1228
	L2_cache_stats_breakdown[GLOBAL_ACC_W][MISS] = 112482
	L2_cache_stats_breakdown[GLOBAL_ACC_W][RESERVATION_FAIL] = 15487
	L2_cache_stats_breakdown[LOCAL_ACC_W][HIT] = 6853
	L2_cache_stats_breakdown[LOCAL_ACC_W][HIT_RESERVED] = 21894
	L2_cache_stats_breakdown[LOCAL_ACC_W][MISS] = 236651
	L2_cache_stats_breakdown[LOCAL_ACC_W][RESERVATION_FAIL] = 52694
	L2_cache_stats_breakdown[L1_WRBK_ACC][HIT] = 1839
	L2_cache_stats_breakdown[L1_WRBK_ACC][MISS] = 919
	L2_cache_stats_breakdown[L1_WRBK_ACC][RESERVATION_FAIL] = 53
	L2_cache_stats_breakdown[INST_ACC_R][HIT] = 142237
	L2_cache_stats_breakdown[INST_ACC_R][HIT_RESERVED] = 412
	L2_cache_stats_breakdown[INST_ACC_R][MISS] = 1799
	L2_cache_stats_breakdown[INST_ACC_R][RESERVATION_FAIL] = 1661
L2_cache_data_port_util = 0.140
L2_cache_fill_port_util = 0.182

icnt_total_pkts_mem_to_simt=7729196
icnt_total_pkts_simt_to_mem=3814523
LD_mem_lat_dist  0 0 0 0 0 0 0 0 0 0 0 0 0 0 0 0 0 0 0 0 0 0 0 0 0 0 0
ST_mem_lat_dist  0 0 0 0 0 0 0 0 0 0 0 0 0 0 0 0 0 0 0 0 0 0 0 0 0 0 0
----------------------------Interconnect-DETAILS--------------------------------
Class 0:
Packet latency average = -nan
	minimum = nan
	maximum = -nan
Network latency average = -nan
	minimum = nan
	maximum = -nan
Slowest packet = -1
Flit latency average = -nan
	minimum = nan
	maximum = -nan
Slowest flit = -1
Fragmentation average = -nan
	minimum = nan
	maximum = -nan
Injected packet rate average = -nan
	minimum = -nan (at node 0)
	maximum = -nan (at node 0)
Accepted packet rate average = -nan
	minimum = -nan (at node 0)
	maximum = -nan (at node 0)
Injected flit rate average = -nan
	minimum = -nan (at node 0)
	maximum = -nan (at node 0)
Accepted flit rate average= -nan
	minimum = -nan (at node 0)
	maximum = -nan (at node 0)
Injected packet length average = -nan
Accepted packet length average = -nan
Total in-flight flits = 0 (0 measured)
====== Overall Traffic Statistics ======
====== Traffic class 0 ======
Packet latency average = -nan (31 samples)
	minimum = nan (31 samples)
	maximum = -nan (31 samples)
Network latency average = -nan (31 samples)
	minimum = nan (31 samples)
	maximum = -nan (31 samples)
Flit latency average = -nan (31 samples)
	minimum = nan (31 samples)
	maximum = -nan (31 samples)
Fragmentation average = -nan (31 samples)
	minimum = nan (31 samples)
	maximum = -nan (31 samples)
Injected packet rate average = -nan (31 samples)
	minimum = -nan (31 samples)
	maximum = -nan (31 samples)
Accepted packet rate average = -nan (31 samples)
	minimum = -nan (31 samples)
	maximum = -nan (31 samples)
Injected flit rate average = -nan (31 samples)
	minimum = -nan (31 samples)
	maximum = -nan (31 samples)
Accepted flit rate average = -nan (31 samples)
	minimum = -nan (31 samples)
	maximum = -nan (31 samples)
Injected packet size average = -nan (31 samples)
Accepted packet size average = -nan (31 samples)
Hops average = -nan (31 samples)
----------------------------END-of-Interconnect-DETAILS-------------------------
 Step number? Path to File? 
 opening ./data/wsm5_in_010
